
     RDKit          3D

 23 24  0  0  0  0  0  0  0  0999 V2000
   -4.4925    2.3852    0.6149 O   0  0  0  0  0  0  0  0  0  0  0  0
   -3.4332    1.5415    0.4669 C   0  0  0  0  0  0  0  0  0  0  0  0
   -3.4407    0.6755   -0.6165 C   0  0  0  0  0  0  0  0  0  0  0  0
   -2.3769   -0.2106   -0.8137 C   0  0  0  0  0  0  0  0  0  0  0  0
   -1.2866   -0.2401    0.0746 C   0  0  0  0  0  0  0  0  0  0  0  0
   -0.0752   -1.2060   -0.1012 C   0  0  0  0  0  0  0  0  0  0  0  0
    1.2478   -0.3813   -0.1267 C   0  0  0  0  0  0  0  0  0  0  0  0
    1.3937    0.6733   -1.0566 C   0  0  0  0  0  0  0  0  0  0  0  0
    2.5611    1.4397   -1.1137 C   0  0  0  0  0  0  0  0  0  0  0  0
    3.6019    1.1621   -0.2399 C   0  0  0  0  0  0  0  0  0  0  0  0
    4.7586    1.8814   -0.2568 O   0  0  0  0  0  0  0  0  0  0  0  0
    3.4912    0.1340    0.6845 C   0  0  0  0  0  0  0  0  0  0  0  0
    2.3242   -0.6344    0.7428 C   0  0  0  0  0  0  0  0  0  0  0  0
   -0.1524   -2.2663    1.0075 C   0  0  0  0  0  0  0  0  0  0  0  0
    0.8123   -3.2102    0.9070 F   0  0  0  0  0  0  0  0  0  0  0  0
   -1.3371   -2.9220    1.0187 F   0  0  0  0  0  0  0  0  0  0  0  0
   -0.0137   -1.7198    2.2443 F   0  0  0  0  0  0  0  0  0  0  0  0
   -0.1180   -2.0687   -1.3714 C   0  0  0  0  0  0  0  0  0  0  0  0
    0.9768   -2.8545   -1.5037 F   0  0  0  0  0  0  0  0  0  0  0  0
   -0.1754   -1.3115   -2.4988 F   0  0  0  0  0  0  0  0  0  0  0  0
   -1.1927   -2.8898   -1.4191 F   0  0  0  0  0  0  0  0  0  0  0  0
   -1.3108    0.6552    1.1681 C   0  0  0  0  0  0  0  0  0  0  0  0
   -2.3753    1.5396    1.3638 C   0  0  0  0  0  0  0  0  0  0  0  0
  1  2  1  0
  2  3  2  0
  3  4  1  0
  4  5  2  0
  5  6  1  0
  6  7  1  0
  7  8  2  0
  8  9  1  0
  9 10  2  0
 10 11  1  0
 10 12  1  0
 12 13  2  0
  6 14  1  0
 14 15  1  0
 14 16  1  0
 14 17  1  0
  6 18  1  0
 18 19  1  0
 18 20  1  0
 18 21  1  0
  5 22  1  0
 22 23  2  0
 23  2  1  0
 13  7  1  0
M  END
