
     RDKit          3D

 17 18  0  0  0  0  0  0  0  0999 V2000
    0.1464    2.8685    0.5793 O   0  0  0  0  0  0  0  0  0  0  0  0
    0.2114    1.5262    1.1271 S   0  0  0  0  0  6  0  0  0  0  0  0
    0.4537    1.3180    2.5437 O   0  0  0  0  0  0  0  0  0  0  0  0
    1.4812    0.6674    0.2253 C   0  0  0  0  0  0  0  0  0  0  0  0
    2.4606   -0.0573    0.9126 C   0  0  0  0  0  0  0  0  0  0  0  0
    3.4503   -0.7293    0.1927 C   0  0  0  0  0  0  0  0  0  0  0  0
    3.4491   -0.6639   -1.1990 C   0  0  0  0  0  0  0  0  0  0  0  0
    4.3969   -1.3054   -1.9395 O   0  0  0  0  0  0  0  0  0  0  0  0
    2.4800    0.0642   -1.8838 C   0  0  0  0  0  0  0  0  0  0  0  0
    1.4896    0.7398   -1.1714 C   0  0  0  0  0  0  0  0  0  0  0  0
   -1.3178    0.7003    0.7477 C   0  0  0  0  0  0  0  0  0  0  0  0
   -1.5799   -0.5471    1.3266 C   0  0  0  0  0  0  0  0  0  0  0  0
   -2.7784   -1.2016    1.0370 C   0  0  0  0  0  0  0  0  0  0  0  0
   -3.6978   -0.5991    0.1811 C   0  0  0  0  0  0  0  0  0  0  0  0
   -4.8798   -1.2034   -0.1283 O   0  0  0  0  0  0  0  0  0  0  0  0
   -3.4431    0.6467   -0.3859 C   0  0  0  0  0  0  0  0  0  0  0  0
   -2.2485    1.3075   -0.1000 C   0  0  0  0  0  0  0  0  0  0  0  0
  1  2  2  0
  2  3  2  0
  2  4  1  0
  4  5  2  0
  5  6  1  0
  6  7  2  0
  7  8  1  0
  7  9  1  0
  9 10  2  0
  2 11  1  0
 11 12  2  0
 12 13  1  0
 13 14  2  0
 14 15  1  0
 14 16  1  0
 16 17  2  0
 10  4  1  0
 17 11  1  0
M  END
