
     RDKit          3D

 20 22  0  0  0  0  0  0  0  0999 V2000
   -3.5706   -4.0968    1.3498 O   0  0  0  0  0  0  0  0  0  0  0  0
   -2.8323   -3.0082    0.9929 C   0  0  0  0  0  0  0  0  0  0  0  0
   -1.7352   -2.6833    1.7743 C   0  0  0  0  0  0  0  0  0  0  0  0
   -0.9527   -1.5749    1.4416 C   0  0  0  0  0  0  0  0  0  0  0  0
   -1.2569   -0.7658    0.3255 C   0  0  0  0  0  0  0  0  0  0  0  0
   -0.3508    0.4585   -0.0090 C   0  0  0  0  0  0  0  0  0  0  0  0
    1.0665   -0.0779   -0.3578 C   0  0  0  0  0  0  0  0  0  0  0  0
    1.2687   -0.7994   -1.5539 C   0  0  0  0  0  0  0  0  0  0  0  0
    2.5230   -1.3112   -1.8969 C   0  0  0  0  0  0  0  0  0  0  0  0
    3.5967   -1.1275   -1.0414 C   0  0  0  0  0  0  0  0  0  0  0  0
    4.8035   -1.6416   -1.4107 O   0  0  0  0  0  0  0  0  0  0  0  0
    3.4321   -0.4495    0.1581 C   0  0  0  0  0  0  0  0  0  0  0  0
    2.1737    0.0621    0.4990 C   0  0  0  0  0  0  0  0  0  0  0  0
   -0.9064    1.2991   -1.2124 C   0  0  0  0  0  0  0  0  0  0  0  0
   -0.1630    2.6161   -1.4408 C   0  0  0  0  0  0  0  0  0  0  0  0
   -0.2503    3.5060   -0.2108 C   0  0  0  0  0  0  0  0  0  0  0  0
    0.2637    2.7869    1.0264 C   0  0  0  0  0  0  0  0  0  0  0  0
   -0.4038    1.4209    1.2312 C   0  0  0  0  0  0  0  0  0  0  0  0
   -2.3709   -1.1331   -0.4521 C   0  0  0  0  0  0  0  0  0  0  0  0
   -3.1562   -2.2440   -0.1199 C   0  0  0  0  0  0  0  0  0  0  0  0
  1  2  1  0
  2  3  2  0
  3  4  1  0
  4  5  2  0
  5  6  1  0
  6  7  1  0
  7  8  2  0
  8  9  1  0
  9 10  2  0
 10 11  1  0
 10 12  1  0
 12 13  2  0
  6 14  1  0
 14 15  1  0
 15 16  1  0
 16 17  1  0
 17 18  1  0
  5 19  1  0
 19 20  2  0
 20  2  1  0
 18  6  1  0
 13  7  1  0
M  END
