
     RDKit          3D

 19 20  0  0  0  0  0  0  0  0999 V2000
   -3.0163    1.1455    1.5499 C   0  0  0  0  0  0  0  0  0  0  0  0
   -3.1001    0.6303    0.1742 N   0  0  0  0  0  0  0  0  0  0  0  0
   -4.4808    0.1945   -0.0651 C   0  0  0  0  0  0  0  0  0  0  0  0
   -2.1100   -0.4666   -0.0323 C   0  0  1  0  0  0  0  0  0  0  0  0
   -2.2334   -1.1788   -1.3958 C   0  0  0  0  0  0  0  0  0  0  0  0
   -1.5723   -0.2384   -2.3936 C   0  0  0  0  0  0  0  0  0  0  0  0
   -0.5199    0.5378   -1.6005 C   0  0  0  0  0  0  0  0  0  0  0  0
   -0.6434    0.0739   -0.1392 C   0  0  2  0  0  0  0  0  0  0  0  0
    0.3118   -1.0072    0.1699 N   0  0  0  0  0  0  0  0  0  0  0  0
    1.6365   -0.6300    0.3629 C   0  0  0  0  0  0  0  0  0  0  0  0
    2.0218    0.3020    1.3180 C   0  0  0  0  0  0  0  0  0  0  0  0
    3.3739    0.6111    1.4627 C   0  0  0  0  0  0  0  0  0  0  0  0
    4.3170   -0.0304    0.6597 C   0  0  0  0  0  0  0  0  0  0  0  0
    5.7814    0.2616    0.7419 C   0  0  0  0  0  0  0  0  0  0  0  0
    6.5551   -0.8484    0.5871 F   0  0  0  0  0  0  0  0  0  0  0  0
    6.1549    0.8104    1.9315 F   0  0  0  0  0  0  0  0  0  0  0  0
    6.1899    1.1373   -0.2168 F   0  0  0  0  0  0  0  0  0  0  0  0
    3.8416   -0.9511   -0.2599 C   0  0  0  0  0  0  0  0  0  0  0  0
    2.5333   -1.2637   -0.4155 N   0  0  0  0  0  0  0  0  0  0  0  0
  1  2  1  0
  2  3  1  0
  4  2  1  6
  4  5  1  0
  5  6  1  0
  6  7  1  0
  7  8  1  0
  8  9  1  6
  9 10  1  0
 10 11  2  0
 11 12  1  0
 12 13  2  0
 13 14  1  0
 14 15  1  0
 14 16  1  0
 14 17  1  0
 13 18  1  0
 18 19  2  0
  8  4  1  0
 19 10  1  0
M  END
