
     RDKit          3D

 33 35  0  0  0  0  0  0  0  0999 V2000
   -6.5537    5.0911    1.3437 C   0  0  0  0  0  0  0  0  0  0  0  0
   -5.8327    4.8170    0.1491 O   0  0  0  0  0  0  0  0  0  0  0  0
   -4.6165    4.2083    0.2867 C   0  0  0  0  0  0  0  0  0  0  0  0
   -3.9507    3.9558   -0.9151 C   0  0  0  0  0  0  0  0  0  0  0  0
   -2.7012    3.3310   -0.9186 C   0  0  0  0  0  0  0  0  0  0  0  0
   -2.1071    2.9363    0.2804 C   0  0  0  0  0  0  0  0  0  0  0  0
   -0.8443    2.3349    0.3063 N   0  0  0  0  0  0  0  0  0  0  0  0
   -0.6636    1.1363   -0.1371 C   0  0  0  0  0  0  0  0  0  0  0  0
   -1.5479    0.2100   -0.6165 N   0  0  0  0  0  0  0  0  0  0  0  0
   -2.8125   -0.0727    0.0404 C   0  0  0  0  0  0  0  0  0  0  0  0
   -3.3089   -1.4728   -0.1495 C   0  0  0  0  0  0  0  0  0  0  0  0
   -3.0909   -2.5835    0.7115 C   0  0  0  0  0  0  0  0  0  0  0  0
   -2.3098   -2.6270    1.9733 C   0  0  0  0  0  0  0  0  0  0  0  0
   -3.6759   -3.6928    0.2494 N   0  0  0  0  0  0  0  0  0  0  0  0
   -4.2221   -3.3177   -0.9191 N   0  0  0  0  0  0  0  0  0  0  0  0
   -4.9279   -4.3100   -1.6963 C   0  0  0  0  0  0  0  0  0  0  0  0
   -4.0444   -1.9892   -1.2054 C   0  0  0  0  0  0  0  0  0  0  0  0
   -4.5662   -1.3421   -2.4359 C   0  0  0  0  0  0  0  0  0  0  0  0
    0.6690    0.7884   -0.1073 N   0  0  0  0  0  0  0  0  0  0  0  0
    1.2552   -0.4148   -0.4697 C   0  0  0  0  0  0  0  0  0  0  0  0
    0.6104   -1.3997   -0.8246 O   0  0  0  0  0  0  0  0  0  0  0  0
    2.7406   -0.4996   -0.3695 C   0  0  0  0  0  0  0  0  0  0  0  0
    3.5713    0.6227   -0.3764 C   0  0  0  0  0  0  0  0  0  0  0  0
    4.9603    0.4688   -0.2709 C   0  0  0  0  0  0  0  0  0  0  0  0
    5.5619   -0.8018   -0.1750 C   0  0  0  0  0  0  0  0  0  0  0  0
    7.0923   -0.9290   -0.0541 C   0  0  0  0  0  0  0  0  0  0  0  0
    7.6008   -2.3887   -0.0808 C   0  0  0  0  0  0  0  0  0  0  0  0
    7.7809   -0.1920   -1.2246 C   0  0  0  0  0  0  0  0  0  0  0  0
    7.5493   -0.3049    1.2806 C   0  0  0  0  0  0  0  0  0  0  0  0
    4.7102   -1.9171   -0.1897 C   0  0  0  0  0  0  0  0  0  0  0  0
    3.3214   -1.7691   -0.2866 C   0  0  0  0  0  0  0  0  0  0  0  0
   -2.7602    3.2202    1.4831 C   0  0  0  0  0  0  0  0  0  0  0  0
   -4.0140    3.8411    1.4897 C   0  0  0  0  0  0  0  0  0  0  0  0
  1  2  1  0
  2  3  1  0
  3  4  2  0
  4  5  1  0
  5  6  2  0
  6  7  1  0
  7  8  2  0
  8  9  1  0
  9 10  1  0
 10 11  1  0
 11 12  1  0
 12 13  1  0
 12 14  2  0
 14 15  1  0
 15 16  1  0
 15 17  1  0
 17 18  1  0
  8 19  1  0
 19 20  1  0
 20 21  2  0
 20 22  1  0
 22 23  2  0
 23 24  1  0
 24 25  2  0
 25 26  1  0
 26 27  1  0
 26 28  1  0
 26 29  1  0
 25 30  1  0
 30 31  2  0
  6 32  1  0
 32 33  2  0
 33  3  1  0
 17 11  2  0
 31 22  1  0
M  END
