
     RDKit          3D

 22 25  0  0  0  0  0  0  0  0999 V2000
   -2.4149   -1.9255   -1.6845 O   0  0  0  0  0  0  0  0  0  0  0  0
   -1.6812   -1.3482   -0.8857 C   0  0  0  0  0  0  0  0  0  0  0  0
   -1.3633   -1.9746    0.3928 C   0  0  0  0  0  0  0  0  0  0  0  0
   -0.0764   -2.4254    0.8349 C   0  0  0  0  0  0  0  0  0  0  0  0
   -0.1119   -2.9744    2.0975 C   0  0  0  0  0  0  0  0  0  0  0  0
   -1.6942   -2.9917    2.7425 S   0  0  0  0  0  0  0  0  0  0  0  0
   -2.3365   -2.2758    1.3283 C   0  0  0  0  0  0  0  0  0  0  0  0
   -1.1618   -0.0727   -1.1403 N   0  0  0  0  0  0  0  0  0  0  0  0
   -1.4893    0.5333   -2.4276 C   0  0  0  0  0  0  0  0  0  0  0  0
   -2.8171    1.2974   -2.4064 C   0  0  0  0  0  0  0  0  0  0  0  0
   -3.2863    1.7748   -1.0308 C   0  0  0  0  0  0  0  0  0  0  0  0
   -2.3234    2.6908   -0.2789 C   0  0  0  0  0  0  0  0  0  0  0  0
   -0.8440    2.3017   -0.2873 C   0  0  0  0  0  0  0  0  0  0  0  0
   -0.5548    0.7960   -0.1029 C   0  0  0  0  0  0  0  0  0  0  0  0
    0.9308    0.5868   -0.0627 C   0  0  0  0  0  0  0  0  0  0  0  0
    1.7150    0.3724    0.9714 N   0  0  0  0  0  0  0  0  0  0  0  0
    2.9459    0.2740    0.3805 C   0  0  0  0  0  0  0  0  0  0  0  0
    4.2373   -0.0083    1.1933 C   0  0  0  0  0  0  0  0  0  0  0  0
    4.9628   -1.3141    0.9878 C   0  0  0  0  0  0  0  0  0  0  0  0
    4.2161   -1.0683    2.2667 C   0  0  0  0  0  0  0  0  0  0  0  0
    2.9538    0.4381   -0.9468 N   0  0  0  0  0  0  0  0  0  0  0  0
    1.6074    0.6450   -1.2494 O   0  0  0  0  0  0  0  0  0  0  0  0
  1  2  2  0
  2  3  1  0
  3  4  1  0
  4  5  2  0
  5  6  1  0
  6  7  1  0
  2  8  1  0
  8  9  1  0
  9 10  1  0
 10 11  1  0
 11 12  1  0
 12 13  1  0
 13 14  1  0
 14 15  1  0
 15 16  2  0
 16 17  1  0
 17 18  1  0
 18 19  1  0
 19 20  1  0
 17 21  2  0
 21 22  1  0
  7  3  2  0
 14  8  1  0
 22 15  1  0
 20 18  1  0
M  END
