
     RDKit          3D

 17 18  0  0  0  0  0  0  0  0999 V2000
    0.1433   -0.8616   -2.3050 C   0  0  0  0  0  0  0  0  0  0  0  0
   -0.0297   -0.9207   -0.7644 C   0  0  0  0  0  0  0  0  0  0  0  0
   -0.2490   -2.4166   -0.4167 C   0  0  0  0  0  0  0  0  0  0  0  0
    1.2645   -0.3245   -0.1582 C   0  0  0  0  0  0  0  0  0  0  0  0
    2.2248   -1.1049    0.5087 C   0  0  0  0  0  0  0  0  0  0  0  0
    3.3831   -0.5256    1.0365 C   0  0  0  0  0  0  0  0  0  0  0  0
    3.5988    0.8384    0.9033 C   0  0  0  0  0  0  0  0  0  0  0  0
    4.7413    1.3580    1.4349 O   0  0  0  0  0  0  0  0  0  0  0  0
    2.6744    1.6391    0.2475 C   0  0  0  0  0  0  0  0  0  0  0  0
    1.5175    1.0592   -0.2803 C   0  0  0  0  0  0  0  0  0  0  0  0
   -1.2804   -0.1666   -0.2495 C   0  0  0  0  0  0  0  0  0  0  0  0
   -2.2481    0.3822   -1.1087 C   0  0  0  0  0  0  0  0  0  0  0  0
   -3.3662    1.0510   -0.6003 C   0  0  0  0  0  0  0  0  0  0  0  0
   -3.5338    1.1783    0.7710 C   0  0  0  0  0  0  0  0  0  0  0  0
   -4.6382    1.8393    1.2196 O   0  0  0  0  0  0  0  0  0  0  0  0
   -2.6007    0.6455    1.6493 C   0  0  0  0  0  0  0  0  0  0  0  0
   -1.4841   -0.0234    1.1403 C   0  0  0  0  0  0  0  0  0  0  0  0
  1  2  1  0
  2  3  1  0
  2  4  1  0
  4  5  2  0
  5  6  1  0
  6  7  2  0
  7  8  1  0
  7  9  1  0
  9 10  2  0
  2 11  1  0
 11 12  2  0
 12 13  1  0
 13 14  2  0
 14 15  1  0
 14 16  1  0
 16 17  2  0
 10  4  1  0
 17 11  1  0
M  END
