
     RDKit          3D

 17 18  0  0  0  0  0  0  0  0999 V2000
  -15.4450   -8.5040  -26.0930 O   0  0  0  0  0  0  0  0  0  0  0  0
  -15.7110   -7.2250  -26.3890 C   0  0  0  0  0  0  0  0  0  0  0  0
  -14.9260   -6.5570  -27.3240 C   0  0  0  0  0  0  0  0  0  0  0  0
  -15.1840   -5.2140  -27.6120 C   0  0  0  0  0  0  0  0  0  0  0  0
  -16.7690   -6.5360  -25.7910 C   0  0  0  0  0  0  0  0  0  0  0  0
  -17.0320   -5.1930  -26.0930 C   0  0  0  0  0  0  0  0  0  0  0  0
  -16.2410   -4.5020  -27.0230 C   0  0  0  0  0  0  0  0  0  0  0  0
  -16.4780   -3.0370  -27.3560 C   0  0  1  0  0  0  0  0  0  0  0  0
  -17.8150   -2.5040  -26.8370 C   0  0  0  0  0  0  0  0  0  0  0  0
  -15.4060   -2.2610  -26.5980 C   0  0  0  0  0  0  0  0  0  0  0  0
  -16.4130   -2.8260  -28.8560 C   0  0  0  0  0  0  0  0  0  0  0  0
  -17.4580   -3.3050  -29.6390 C   0  0  0  0  0  0  0  0  0  0  0  0
  -17.4560   -3.1530  -31.0140 C   0  0  0  0  0  0  0  0  0  0  0  0
  -15.3450   -2.1930  -29.4950 C   0  0  0  0  0  0  0  0  0  0  0  0
  -15.3570   -2.0410  -30.8900 C   0  0  0  0  0  0  0  0  0  0  0  0
  -16.4030   -2.5220  -31.6510 C   0  0  0  0  0  0  0  0  0  0  0  0
  -16.4200   -2.3820  -32.9910 O   0  0  0  0  0  0  0  0  0  0  0  0
  2  1  1  0
  3  2  2  0
  4  3  1  0
  5  2  1  0
  6  5  2  0
  7  6  1  0
  7  4  2  0
  8  7  1  0
  8  9  1  1
 10  8  1  0
 11  8  1  0
 12 11  2  0
 13 12  1  0
 14 11  1  0
 15 14  2  0
 16 13  2  0
 16 15  1  0
 17 16  1  0
M  END
