
     RDKit          3D

 17 18  0  0  0  0  0  0  0  0999 V2000
   48.0400   10.2260   -2.3720 O   0  0  0  0  0  0  0  0  0  0  0  0
   47.7580    9.1850   -1.5340 C   0  0  0  0  0  0  0  0  0  0  0  0
   47.1490    9.4180   -0.3110 C   0  0  0  0  0  0  0  0  0  0  0  0
   46.8370    8.3550    0.5180 C   0  0  0  0  0  0  0  0  0  0  0  0
   48.0640    7.8860   -1.9130 C   0  0  0  0  0  0  0  0  0  0  0  0
   47.7500    6.8310   -1.0750 C   0  0  0  0  0  0  0  0  0  0  0  0
   47.1250    7.0460    0.1470 C   0  0  0  0  0  0  0  0  0  0  0  0
   46.7320    5.8650    1.0460 C   0  0  1  0  0  0  0  0  0  0  0  0
   45.2940    5.4200    0.7280 C   0  0  0  0  0  0  0  0  0  0  0  0
   47.6580    4.6680    0.7740 C   0  0  0  0  0  0  0  0  0  0  0  0
   46.8470    6.2910    2.5170 C   0  0  0  0  0  0  0  0  0  0  0  0
   48.0820    6.6310    3.0570 C   0  0  0  0  0  0  0  0  0  0  0  0
   48.2050    6.9970    4.3860 C   0  0  0  0  0  0  0  0  0  0  0  0
   45.7310    6.3340    3.3460 C   0  0  0  0  0  0  0  0  0  0  0  0
   45.8430    6.7010    4.6760 C   0  0  0  0  0  0  0  0  0  0  0  0
   47.0830    7.0330    5.2000 C   0  0  0  0  0  0  0  0  0  0  0  0
   47.2070    7.4010    6.5080 O   0  0  0  0  0  0  0  0  0  0  0  0
  2  1  1  0
  3  2  2  0
  4  3  1  0
  5  2  1  0
  6  5  2  0
  7  6  1  0
  7  4  2  0
  8  7  1  0
  8  9  1  6
 10  8  1  0
 11  8  1  0
 12 11  2  0
 13 12  1  0
 14 11  1  0
 15 14  2  0
 16 15  1  0
 16 13  2  0
 17 16  1  0
M  END
