
     RDKit          3D

 17 18  0  0  0  0  0  0  0  0999 V2000
   -3.3429   -2.6837   21.2967 C   0  0  0  0  0  0  0  0  0  0  0  0
   -4.8688   -2.9640   21.3138 C   0  0  0  0  0  0  0  0  0  0  0  0
   -5.5208   -1.8241   20.4874 C   0  0  0  0  0  0  0  0  0  0  0  0
   -5.4985   -2.8906   22.7266 C   0  0  0  0  0  0  0  0  0  0  0  0
   -5.5776   -1.6974   23.4670 C   0  0  0  0  0  0  0  0  0  0  0  0
   -6.1638   -1.6711   24.7380 C   0  0  0  0  0  0  0  0  0  0  0  0
   -6.6804   -2.8399   25.2822 C   0  0  0  0  0  0  0  0  0  0  0  0
   -7.2589   -2.8560   26.5163 O   0  0  0  0  0  0  0  0  0  0  0  0
   -6.6211   -4.0323   24.5778 C   0  0  0  0  0  0  0  0  0  0  0  0
   -6.0365   -4.0574   23.3099 C   0  0  0  0  0  0  0  0  0  0  0  0
   -5.0588   -4.3694   20.6919 C   0  0  0  0  0  0  0  0  0  0  0  0
   -4.1823   -5.4406   20.9417 C   0  0  0  0  0  0  0  0  0  0  0  0
   -4.3947   -6.6995   20.3674 C   0  0  0  0  0  0  0  0  0  0  0  0
   -5.4897   -6.9016   19.5372 C   0  0  0  0  0  0  0  0  0  0  0  0
   -5.7314   -8.1120   18.9589 O   0  0  0  0  0  0  0  0  0  0  0  0
   -6.3745   -5.8679   19.2725 C   0  0  0  0  0  0  0  0  0  0  0  0
   -6.1619   -4.6125   19.8462 C   0  0  0  0  0  0  0  0  0  0  0  0
  1  2  1  0
  2  3  1  0
  2  4  1  0
  4  5  4  0
  5  6  4  0
  6  7  4  0
  7  8  1  0
  7  9  4  0
  9 10  4  0
  2 11  1  0
 11 12  4  0
 12 13  4  0
 13 14  4  0
 14 15  1  0
 14 16  4  0
 16 17  4  0
 10  4  4  0
 17 11  4  0
M  END
