
     RDKit          3D

 17 18  0  0  0  0  0  0  0  0999 V2000
  -17.7956   -4.5439  -29.6626 C   0  0  0  0  0  0  0  0  0  0  0  0
  -17.4097   -3.0602  -29.4235 C   0  0  0  0  0  0  0  0  0  0  0  0
  -18.7260   -2.2502  -29.5600 C   0  0  0  0  0  0  0  0  0  0  0  0
  -16.3499   -2.7092  -30.4967 C   0  0  0  0  0  0  0  0  0  0  0  0
  -16.6797   -2.4388  -31.8369 C   0  0  0  0  0  0  0  0  0  0  0  0
  -15.6902   -2.1348  -32.7793 C   0  0  0  0  0  0  0  0  0  0  0  0
  -14.3570   -2.1003  -32.3910 C   0  0  0  0  0  0  0  0  0  0  0  0
  -13.3641   -1.8085  -33.2781 O   0  0  0  0  0  0  0  0  0  0  0  0
  -13.9975   -2.3647  -31.0787 C   0  0  0  0  0  0  0  0  0  0  0  0
  -14.9854   -2.6682  -30.1394 C   0  0  0  0  0  0  0  0  0  0  0  0
  -16.8732   -2.7794  -27.9983 C   0  0  0  0  0  0  0  0  0  0  0  0
  -17.5586   -1.9781  -27.0677 C   0  0  0  0  0  0  0  0  0  0  0  0
  -17.0346   -1.7404  -25.7915 C   0  0  0  0  0  0  0  0  0  0  0  0
  -15.8155   -2.3009  -25.4326 C   0  0  0  0  0  0  0  0  0  0  0  0
  -15.2715   -2.0935  -24.2001 O   0  0  0  0  0  0  0  0  0  0  0  0
  -15.1128   -3.0932  -26.3269 C   0  0  0  0  0  0  0  0  0  0  0  0
  -15.6362   -3.3294  -27.5999 C   0  0  0  0  0  0  0  0  0  0  0  0
  1  2  1  0
  2  3  1  0
  2  4  1  0
  4  5  4  0
  5  6  4  0
  6  7  4  0
  7  8  1  0
  7  9  4  0
  9 10  4  0
  2 11  1  0
 11 12  4  0
 12 13  4  0
 13 14  4  0
 14 15  1  0
 14 16  4  0
 16 17  4  0
 10  4  4  0
 17 11  4  0
M  END
