
     RDKit          3D

 17 18  0  0  0  0  0  0  0  0999 V2000
   48.4302    5.7709    2.6769 C   0  0  0  0  0  0  0  0  0  0  0  0
   47.0939    6.0755    1.9497 C   0  0  0  0  0  0  0  0  0  0  0  0
   46.5588    4.7073    1.4507 C   0  0  0  0  0  0  0  0  0  0  0  0
   47.4369    7.0629    0.8072 C   0  0  0  0  0  0  0  0  0  0  0  0
   48.3888    6.7788   -0.1885 C   0  0  0  0  0  0  0  0  0  0  0  0
   48.6774    7.7031   -1.1995 C   0  0  0  0  0  0  0  0  0  0  0  0
   48.0175    8.9249   -1.2242 C   0  0  0  0  0  0  0  0  0  0  0  0
   48.2701    9.8515   -2.1915 O   0  0  0  0  0  0  0  0  0  0  0  0
   47.0758    9.2377   -0.2563 C   0  0  0  0  0  0  0  0  0  0  0  0
   46.7888    8.3152    0.7521 C   0  0  0  0  0  0  0  0  0  0  0  0
   45.9995    6.6569    2.8782 C   0  0  0  0  0  0  0  0  0  0  0  0
   45.9842    6.4439    4.2683 C   0  0  0  0  0  0  0  0  0  0  0  0
   44.9708    6.9792    5.0722 C   0  0  0  0  0  0  0  0  0  0  0  0
   43.9583    7.7329    4.4927 C   0  0  0  0  0  0  0  0  0  0  0  0
   42.9538    8.2711    5.2406 O   0  0  0  0  0  0  0  0  0  0  0  0
   43.9419    7.9594    3.1253 C   0  0  0  0  0  0  0  0  0  0  0  0
   44.9531    7.4247    2.3242 C   0  0  0  0  0  0  0  0  0  0  0  0
  1  2  1  0
  2  3  1  0
  2  4  1  0
  4  5  4  0
  5  6  4  0
  6  7  4  0
  7  8  1  0
  7  9  4  0
  9 10  4  0
  2 11  1  0
 11 12  4  0
 12 13  4  0
 13 14  4  0
 14 15  1  0
 14 16  4  0
 16 17  4  0
 10  4  4  0
 17 11  4  0
M  END
