
     RDKit          3D

 33 35  0  0  0  0  0  0  0  0999 V2000
   23.0811   10.0309    7.0193 C   0  0  0  0  0  0  0  0  0  0  0  0
   23.2800    9.3202    5.8041 O   0  0  0  0  0  0  0  0  0  0  0  0
   24.3381    8.4544    5.7610 C   0  0  0  0  0  0  0  0  0  0  0  0
   24.0756    7.2427    5.1165 C   0  0  0  0  0  0  0  0  0  0  0  0
   25.0707    6.2691    5.0012 C   0  0  0  0  0  0  0  0  0  0  0  0
   26.3489    6.5062    5.5062 C   0  0  0  0  0  0  0  0  0  0  0  0
   27.3304    5.5237    5.4172 N   0  0  0  0  0  0  0  0  0  0  0  0
   27.3843    4.6360    4.4875 C   0  0  0  0  0  0  0  0  0  0  0  0
   26.5578    4.3749    3.4235 N   0  0  0  0  0  0  0  0  0  0  0  0
   26.5942    3.1974    2.5780 C   0  0  0  0  0  0  0  0  0  0  0  0
   25.5620    2.1724    2.9379 C   0  0  0  0  0  0  0  0  0  0  0  0
   24.8370    2.0870    4.1576 C   0  0  0  0  0  0  0  0  0  0  0  0
   24.9300    2.9801    5.3397 C   0  0  0  0  0  0  0  0  0  0  0  0
   23.9819    1.0606    4.1555 N   0  0  0  0  0  0  0  0  0  0  0  0
   24.1661    0.4751    2.9615 N   0  0  0  0  0  0  0  0  0  0  0  0
   23.4088   -0.7116    2.6365 C   0  0  0  0  0  0  0  0  0  0  0  0
   25.0817    1.1217    2.1710 C   0  0  0  0  0  0  0  0  0  0  0  0
   25.4224    0.6769    0.7956 C   0  0  0  0  0  0  0  0  0  0  0  0
   28.4681    3.7717    4.5049 N   0  0  0  0  0  0  0  0  0  0  0  0
   28.7903    2.7979    5.4478 C   0  0  0  0  0  0  0  0  0  0  0  0
   28.7598    2.8951    6.6679 O   0  0  0  0  0  0  0  0  0  0  0  0
   29.2176    1.4978    4.8633 C   0  0  0  0  0  0  0  0  0  0  0  0
   29.2528    1.2817    3.4846 C   0  0  0  0  0  0  0  0  0  0  0  0
   29.6837    0.0479    2.9837 C   0  0  0  0  0  0  0  0  0  0  0  0
   30.0840   -0.9986    3.8391 C   0  0  0  0  0  0  0  0  0  0  0  0
   30.5672   -2.3363    3.2491 C   0  0  0  0  0  0  0  0  0  0  0  0
   29.3540   -3.1613    2.7711 C   0  0  0  0  0  0  0  0  0  0  0  0
   31.3523   -3.2134    4.2510 C   0  0  0  0  0  0  0  0  0  0  0  0
   31.5039   -2.0673    2.0509 C   0  0  0  0  0  0  0  0  0  0  0  0
   30.0126   -0.7644    5.2234 C   0  0  0  0  0  0  0  0  0  0  0  0
   29.5801    0.4659    5.7307 C   0  0  0  0  0  0  0  0  0  0  0  0
   26.6013    7.7039    6.1787 C   0  0  0  0  0  0  0  0  0  0  0  0
   25.6057    8.6809    6.2974 C   0  0  0  0  0  0  0  0  0  0  0  0
  1  2  1  0
  2  3  1  0
  3  4  4  0
  4  5  4  0
  5  6  4  0
  6  7  1  0
  7  8  2  0
  8  9  1  0
  9 10  1  0
 10 11  1  0
 11 12  4  0
 12 13  1  0
 12 14  4  0
 14 15  4  0
 15 16  1  0
 15 17  4  0
 17 18  1  0
  8 19  1  0
 19 20  1  0
 20 21  2  0
 20 22  1  0
 22 23  4  0
 23 24  4  0
 24 25  4  0
 25 26  1  0
 26 27  1  0
 26 28  1  0
 26 29  1  0
 25 30  4  0
 30 31  4  0
  6 32  4  0
 32 33  4  0
 33  3  4  0
 17 11  4  0
 31 22  4  0
M  END
