
     RDKit          3D

 22 25  0  0  0  0  0  0  0  0999 V2000
   26.3571    3.2977    6.5662 O   0  0  0  0  0  0  0  0  0  0  0  0
   26.0224    3.7872    5.4893 C   0  0  0  0  0  0  0  0  0  0  0  0
   26.1154    5.2315    5.2611 C   0  0  0  0  0  0  0  0  0  0  0  0
   27.3090    6.0095    5.0709 C   0  0  0  0  0  0  0  0  0  0  0  0
   27.0479    7.3452    4.8597 C   0  0  0  0  0  0  0  0  0  0  0  0
   25.3720    7.6755    4.8583 S   0  0  0  0  0  0  0  0  0  0  0  0
   24.9930    6.0298    5.1244 C   0  0  0  0  0  0  0  0  0  0  0  0
   25.5119    3.0006    4.4436 N   0  0  0  0  0  0  0  0  0  0  0  0
   24.1245    3.1783    4.0117 C   0  0  0  0  0  0  0  0  0  0  0  0
   23.3379    1.8758    3.8495 C   0  0  0  0  0  0  0  0  0  0  0  0
   24.1636    0.6095    3.6503 C   0  0  0  0  0  0  0  0  0  0  0  0
   25.0781    0.6099    2.4291 C   0  0  0  0  0  0  0  0  0  0  0  0
   25.8988    1.8797    2.1870 C   0  0  0  0  0  0  0  0  0  0  0  0
   26.5013    2.5577    3.4352 C   0  0  0  0  0  0  0  0  0  0  0  0
   27.5187    1.6480    4.0664 C   0  0  0  0  0  0  0  0  0  0  0  0
   28.8298    1.6218    3.9471 N   0  0  0  0  0  0  0  0  0  0  0  0
   29.1665    0.5784    4.7655 C   0  0  0  0  0  0  0  0  0  0  0  0
   30.6340    0.1092    4.9549 C   0  0  0  0  0  0  0  0  0  0  0  0
   31.0103   -0.6236    6.2177 C   0  0  0  0  0  0  0  0  0  0  0  0
   30.9504   -1.3645    4.9137 C   0  0  0  0  0  0  0  0  0  0  0  0
   28.1430    0.0015    5.4055 N   0  0  0  0  0  0  0  0  0  0  0  0
   27.0355    0.7071    4.9315 O   0  0  0  0  0  0  0  0  0  0  0  0
  1  2  2  0
  2  3  1  0
  3  4  4  0
  4  5  4  0
  5  6  4  0
  6  7  4  0
  2  8  1  0
  8  9  1  0
  9 10  1  0
 10 11  1  0
 11 12  1  0
 12 13  1  0
 13 14  1  0
 14 15  1  0
 15 16  4  0
 16 17  4  0
 17 18  1  0
 18 19  1  0
 19 20  1  0
 17 21  4  0
 21 22  4  0
  7  3  4  0
 14  8  1  0
 22 15  4  0
 20 18  1  0
M  END
