
     RDKit          3D

 19 20  0  0  0  0  0  0  0  0999 V2000
   30.6112   -0.3550    5.4696 C   0  0  0  0  0  0  0  0  0  0  0  0
   29.8196   -0.7190    4.2911 N   0  0  0  0  0  0  0  0  0  0  0  0
   30.2754   -2.0076    3.7724 C   0  0  0  0  0  0  0  0  0  0  0  0
   28.3708   -0.6529    4.5916 C   0  0  0  0  0  0  0  0  0  0  0  0
   27.4497   -1.7109    3.9709 C   0  0  0  0  0  0  0  0  0  0  0  0
   26.0582   -1.1532    4.2592 C   0  0  0  0  0  0  0  0  0  0  0  0
   26.1793    0.3542    4.0262 C   0  0  0  0  0  0  0  0  0  0  0  0
   27.6745    0.6736    4.1704 C   0  0  0  0  0  0  0  0  0  0  0  0
   28.0085    1.8226    5.0210 N   0  0  0  0  0  0  0  0  0  0  0  0
   27.4042    3.0655    4.8035 C   0  0  0  0  0  0  0  0  0  0  0  0
   26.1870    3.3130    5.4362 C   0  0  0  0  0  0  0  0  0  0  0  0
   25.5564    4.5469    5.2760 C   0  0  0  0  0  0  0  0  0  0  0  0
   26.1549    5.5247    4.4844 C   0  0  0  0  0  0  0  0  0  0  0  0
   25.5571    6.8799    4.2822 C   0  0  0  0  0  0  0  0  0  0  0  0
   25.0607    7.0598    3.0265 F   0  0  0  0  0  0  0  0  0  0  0  0
   24.5231    7.1435    5.1292 F   0  0  0  0  0  0  0  0  0  0  0  0
   26.4594    7.8809    4.4729 F   0  0  0  0  0  0  0  0  0  0  0  0
   27.3730    5.2077    3.9084 C   0  0  0  0  0  0  0  0  0  0  0  0
   27.9964    4.0143    4.0539 N   0  0  0  0  0  0  0  0  0  0  0  0
  1  2  1  0
  2  3  1  0
  4  2  1  0
  4  5  1  0
  5  6  1  0
  6  7  1  0
  7  8  1  0
  8  9  1  0
  9 10  1  0
 10 11  4  0
 11 12  4  0
 12 13  4  0
 13 14  1  0
 14 15  1  0
 14 16  1  0
 14 17  1  0
 13 18  4  0
 18 19  4  0
  8  4  1  0
 19 10  4  0
M  END
