
     RDKit          3D

 23 24  0  0  0  0  0  0  0  0999 V2000
   25.6351    5.6952    2.5408 O   0  0  0  0  0  0  0  0  0  0  0  0
   26.3286    4.6822    3.1312 C   0  0  0  0  0  0  0  0  0  0  0  0
   26.4816    3.4500    2.5131 C   0  0  0  0  0  0  0  0  0  0  0  0
   27.2017    2.4419    3.1603 C   0  0  0  0  0  0  0  0  0  0  0  0
   27.7795    2.6488    4.4336 C   0  0  0  0  0  0  0  0  0  0  0  0
   28.5719    1.4917    5.1152 C   0  0  0  0  0  0  0  0  0  0  0  0
   27.8966    0.1281    4.7747 C   0  0  0  0  0  0  0  0  0  0  0  0
   28.6285   -1.0257    4.4404 C   0  0  0  0  0  0  0  0  0  0  0  0
   27.9785   -2.2270    4.1399 C   0  0  0  0  0  0  0  0  0  0  0  0
   26.5934   -2.2950    4.1696 C   0  0  0  0  0  0  0  0  0  0  0  0
   26.0080   -3.4878    3.8690 O   0  0  0  0  0  0  0  0  0  0  0  0
   25.8395   -1.1775    4.4960 C   0  0  0  0  0  0  0  0  0  0  0  0
   26.4872    0.0241    4.7960 C   0  0  0  0  0  0  0  0  0  0  0  0
   28.6784    1.5968    6.6440 C   0  0  0  0  0  0  0  0  0  0  0  0
   29.4366    2.6407    7.0525 F   0  0  0  0  0  0  0  0  0  0  0  0
   29.2120    0.4863    7.2058 F   0  0  0  0  0  0  0  0  0  0  0  0
   27.4628    1.7662    7.2280 F   0  0  0  0  0  0  0  0  0  0  0  0
   30.0416    1.6085    4.6841 C   0  0  0  0  0  0  0  0  0  0  0  0
   30.5476    2.8473    4.8910 F   0  0  0  0  0  0  0  0  0  0  0  0
   30.2048    1.3524    3.3592 F   0  0  0  0  0  0  0  0  0  0  0  0
   30.8553    0.7438    5.3336 F   0  0  0  0  0  0  0  0  0  0  0  0
   27.6046    3.9111    5.0293 C   0  0  0  0  0  0  0  0  0  0  0  0
   26.8833    4.9182    4.3804 C   0  0  0  0  0  0  0  0  0  0  0  0
  1  2  1  0
  2  3  4  0
  3  4  4  0
  4  5  4  0
  5  6  1  0
  6  7  1  0
  7  8  4  0
  8  9  4  0
  9 10  4  0
 10 11  1  0
 10 12  4  0
 12 13  4  0
  6 14  1  0
 14 15  1  0
 14 16  1  0
 14 17  1  0
  6 18  1  0
 18 19  1  0
 18 20  1  0
 18 21  1  0
  5 22  4  0
 22 23  4  0
 23  2  4  0
 13  7  4  0
M  END
