
     RDKit          3D

 17 18  0  0  0  0  0  0  0  0999 V2000
   31.5039    7.6110   -5.2658 O   0  0  0  0  0  0  0  0  0  0  0  0
   32.0258    6.7198   -4.2456 S   0  0  0  0  0  6  0  0  0  0  0  0
   33.3643    6.1695   -4.3595 O   0  0  0  0  0  0  0  0  0  0  0  0
   31.9245    7.6010   -2.7040 C   0  0  0  0  0  0  0  0  0  0  0  0
   33.1051    7.9202   -2.0256 C   0  0  0  0  0  0  0  0  0  0  0  0
   33.0319    8.6152   -0.8188 C   0  0  0  0  0  0  0  0  0  0  0  0
   31.7899    8.9744   -0.3024 C   0  0  0  0  0  0  0  0  0  0  0  0
   31.7704    9.6516    0.8805 O   0  0  0  0  0  0  0  0  0  0  0  0
   30.6113    8.6487   -0.9702 C   0  0  0  0  0  0  0  0  0  0  0  0
   30.6767    7.9542   -2.1796 C   0  0  0  0  0  0  0  0  0  0  0  0
   30.9190    5.3342   -4.1095 C   0  0  0  0  0  0  0  0  0  0  0  0
   30.4170    4.7490   -5.2764 C   0  0  0  0  0  0  0  0  0  0  0  0
   29.5525    3.6594   -5.1757 C   0  0  0  0  0  0  0  0  0  0  0  0
   29.1952    3.1744   -3.9206 C   0  0  0  0  0  0  0  0  0  0  0  0
   28.3468    2.1084   -3.8742 O   0  0  0  0  0  0  0  0  0  0  0  0
   29.6849    3.7616   -2.7559 C   0  0  0  0  0  0  0  0  0  0  0  0
   30.5519    4.8520   -2.8487 C   0  0  0  0  0  0  0  0  0  0  0  0
  1  2  2  0
  2  3  2  0
  2  4  1  0
  4  5  4  0
  5  6  4  0
  6  7  4  0
  7  8  1  0
  7  9  4  0
  9 10  4  0
  2 11  1  0
 11 12  4  0
 12 13  4  0
 13 14  4  0
 14 15  1  0
 14 16  4  0
 16 17  4  0
 10  4  4  0
 17 11  4  0
M  END
