
     RDKit          3D

 20 22  0  0  0  0  0  0  0  0999 V2000
   23.9862    0.0796    0.6735 O   0  0  0  0  0  0  0  0  0  0  0  0
   24.5921    0.6698    1.7421 C   0  0  0  0  0  0  0  0  0  0  0  0
   25.8096    1.2971    1.5334 C   0  0  0  0  0  0  0  0  0  0  0  0
   26.4621    1.9128    2.6039 C   0  0  0  0  0  0  0  0  0  0  0  0
   25.9128    1.9083    3.9050 C   0  0  0  0  0  0  0  0  0  0  0  0
   26.6815    2.6176    5.0565 C   0  0  0  0  0  0  0  0  0  0  0  0
   28.0092    1.8429    5.3088 C   0  0  0  0  0  0  0  0  0  0  0  0
   29.2005    2.1091    4.6100 C   0  0  0  0  0  0  0  0  0  0  0  0
   30.3693    1.3830    4.8684 C   0  0  0  0  0  0  0  0  0  0  0  0
   30.3597    0.3816    5.8308 C   0  0  0  0  0  0  0  0  0  0  0  0
   31.4768   -0.3475    6.1113 O   0  0  0  0  0  0  0  0  0  0  0  0
   29.2033    0.0950    6.5391 C   0  0  0  0  0  0  0  0  0  0  0  0
   28.0377    0.8195    6.2809 C   0  0  0  0  0  0  0  0  0  0  0  0
   27.0992    4.1047    4.7792 C   0  0  0  0  0  0  0  0  0  0  0  0
   26.0675    5.1781    5.1592 C   0  0  0  0  0  0  0  0  0  0  0  0
   24.6319    4.6840    5.1971 C   0  0  0  0  0  0  0  0  0  0  0  0
   24.4589    3.4630    6.0943 C   0  0  0  0  0  0  0  0  0  0  0  0
   25.7481    2.6606    6.3071 C   0  0  0  0  0  0  0  0  0  0  0  0
   24.6710    1.2712    4.0766 C   0  0  0  0  0  0  0  0  0  0  0  0
   24.0155    0.6525    3.0048 C   0  0  0  0  0  0  0  0  0  0  0  0
  1  2  1  0
  2  3  4  0
  3  4  4  0
  4  5  4  0
  5  6  1  0
  6  7  1  0
  7  8  4  0
  8  9  4  0
  9 10  4  0
 10 11  1  0
 10 12  4  0
 12 13  4  0
  6 14  1  0
 14 15  1  0
 15 16  1  0
 16 17  1  0
 17 18  1  0
  5 19  4  0
 19 20  4  0
 20  2  4  0
 18  6  1  0
 13  7  4  0
M  END
