
     RDKit          3D

 19 20  0  0  0  0  0  0  0  0999 V2000
   -8.3499   -1.4356   24.1921 C   0  0  0  0  0  0  0  0  0  0  0  0
   -8.0580   -2.7164   23.5431 N   0  0  0  0  0  0  0  0  0  0  0  0
   -8.3077   -3.8093   24.4797 C   0  0  0  0  0  0  0  0  0  0  0  0
   -6.7007   -2.7003   22.9358 C   0  0  0  0  0  0  0  0  0  0  0  0
   -5.6215   -2.5761   24.0424 C   0  0  0  0  0  0  0  0  0  0  0  0
   -4.7491   -1.3788   23.6834 C   0  0  0  0  0  0  0  0  0  0  0  0
   -5.6003   -0.5375   22.7463 C   0  0  0  0  0  0  0  0  0  0  0  0
   -6.3570   -1.5742   21.9049 C   0  0  0  0  0  0  0  0  0  0  0  0
   -5.4449   -2.0614   20.8500 N   0  0  0  0  0  0  0  0  0  0  0  0
   -5.2104   -3.4441   20.8133 C   0  0  0  0  0  0  0  0  0  0  0  0
   -3.9792   -3.9076   21.2722 C   0  0  0  0  0  0  0  0  0  0  0  0
   -3.7117   -5.2763   21.2765 C   0  0  0  0  0  0  0  0  0  0  0  0
   -4.6870   -6.1671   20.8322 C   0  0  0  0  0  0  0  0  0  0  0  0
   -4.4713   -7.6461   20.7873 C   0  0  0  0  0  0  0  0  0  0  0  0
   -4.9369   -8.2021   19.6353 F   0  0  0  0  0  0  0  0  0  0  0  0
   -5.0978   -8.3071   21.7998 F   0  0  0  0  0  0  0  0  0  0  0  0
   -3.1588   -8.0012   20.8685 F   0  0  0  0  0  0  0  0  0  0  0  0
   -5.8823   -5.6235   20.3930 C   0  0  0  0  0  0  0  0  0  0  0  0
   -6.1567   -4.2970   20.3805 N   0  0  0  0  0  0  0  0  0  0  0  0
  1  2  1  0
  2  3  1  0
  4  2  1  0
  4  5  1  0
  5  6  1  0
  6  7  1  0
  7  8  1  0
  8  9  1  0
  9 10  1  0
 10 11  4  0
 11 12  4  0
 12 13  4  0
 13 14  1  0
 14 15  1  0
 14 16  1  0
 14 17  1  0
 13 18  4  0
 18 19  4  0
  8  4  1  0
 19 10  4  0
M  END
