
     RDKit          3D

 20 22  0  0  0  0  0  0  0  0999 V2000
   -0.6774   -2.2161   18.4050 O   0  0  0  0  0  0  0  0  0  0  0  0
   -1.7165   -2.4332   19.2601 C   0  0  0  0  0  0  0  0  0  0  0  0
   -2.9053   -2.9082   18.7290 C   0  0  0  0  0  0  0  0  0  0  0  0
   -3.9933   -3.1437   19.5722 C   0  0  0  0  0  0  0  0  0  0  0  0
   -3.9100   -2.9083   20.9617 C   0  0  0  0  0  0  0  0  0  0  0  0
   -5.1518   -3.1918   21.8584 C   0  0  0  0  0  0  0  0  0  0  0  0
   -5.7663   -4.5540   21.4262 C   0  0  0  0  0  0  0  0  0  0  0  0
   -4.9999   -5.7318   21.5668 C   0  0  0  0  0  0  0  0  0  0  0  0
   -5.5065   -6.9810   21.2006 C   0  0  0  0  0  0  0  0  0  0  0  0
   -6.7916   -7.0771   20.6922 C   0  0  0  0  0  0  0  0  0  0  0  0
   -7.2505   -8.3127   20.3455 O   0  0  0  0  0  0  0  0  0  0  0  0
   -7.5792   -5.9430   20.5481 C   0  0  0  0  0  0  0  0  0  0  0  0
   -7.0697   -4.6917   20.9165 C   0  0  0  0  0  0  0  0  0  0  0  0
   -4.6369   -3.1183   23.3391 C   0  0  0  0  0  0  0  0  0  0  0  0
   -5.6694   -2.6888   24.3928 C   0  0  0  0  0  0  0  0  0  0  0  0
   -7.1133   -2.9481   23.9995 C   0  0  0  0  0  0  0  0  0  0  0  0
   -7.4693   -2.3342   22.6496 C   0  0  0  0  0  0  0  0  0  0  0  0
   -6.2606   -2.0997   21.7355 C   0  0  0  0  0  0  0  0  0  0  0  0
   -2.6899   -2.4245   21.4671 C   0  0  0  0  0  0  0  0  0  0  0  0
   -1.5988   -2.1883   20.6222 C   0  0  0  0  0  0  0  0  0  0  0  0
  1  2  1  0
  2  3  4  0
  3  4  4  0
  4  5  4  0
  5  6  1  0
  6  7  1  0
  7  8  4  0
  8  9  4  0
  9 10  4  0
 10 11  1  0
 10 12  4  0
 12 13  4  0
  6 14  1  0
 14 15  1  0
 15 16  1  0
 16 17  1  0
 17 18  1  0
  5 19  4  0
 19 20  4  0
 20  2  4  0
 18  6  1  0
 13  7  4  0
M  END
