
     RDKit          3D

 17 18  0  0  0  0  0  0  0  0999 V2000
   -5.0197   -6.5250   21.2115 O   0  0  0  0  0  0  0  0  0  0  0  0
   -5.1472   -5.1723   20.7002 S   0  0  0  0  0  6  0  0  0  0  0  0
   -5.4513   -4.9371   19.3003 O   0  0  0  0  0  0  0  0  0  0  0  0
   -3.6195   -4.3431   21.0763 C   0  0  0  0  0  0  0  0  0  0  0  0
   -3.1477   -4.3068   22.3927 C   0  0  0  0  0  0  0  0  0  0  0  0
   -1.9454   -3.6552   22.6739 C   0  0  0  0  0  0  0  0  0  0  0  0
   -1.2372   -3.0472   21.6396 C   0  0  0  0  0  0  0  0  0  0  0  0
   -0.0595   -2.4009   21.8712 O   0  0  0  0  0  0  0  0  0  0  0  0
   -1.7105   -3.0748   20.3306 C   0  0  0  0  0  0  0  0  0  0  0  0
   -2.9113   -3.7224   20.0422 C   0  0  0  0  0  0  0  0  0  0  0  0
   -6.4139   -4.3486   21.6384 C   0  0  0  0  0  0  0  0  0  0  0  0
   -7.4123   -3.6223   20.9808 C   0  0  0  0  0  0  0  0  0  0  0  0
   -8.4026   -2.9830   21.7291 C   0  0  0  0  0  0  0  0  0  0  0  0
   -8.3777   -3.0747   23.1191 C   0  0  0  0  0  0  0  0  0  0  0  0
   -9.3256   -2.4657   23.8866 O   0  0  0  0  0  0  0  0  0  0  0  0
   -7.3792   -3.7896   23.7749 C   0  0  0  0  0  0  0  0  0  0  0  0
   -6.3859   -4.4296   23.0344 C   0  0  0  0  0  0  0  0  0  0  0  0
  1  2  2  0
  2  3  2  0
  2  4  1  0
  4  5  4  0
  5  6  4  0
  6  7  4  0
  7  8  1  0
  7  9  4  0
  9 10  4  0
  2 11  1  0
 11 12  4  0
 12 13  4  0
 13 14  4  0
 14 15  1  0
 14 16  4  0
 16 17  4  0
 10  4  4  0
 17 11  4  0
M  END
