
     RDKit          3D

 22 25  0  0  0  0  0  0  0  0999 V2000
   -8.9108   -2.9327   23.4466 O   0  0  0  0  0  0  0  0  0  0  0  0
   -8.1682   -3.4931   22.6437 C   0  0  0  0  0  0  0  0  0  0  0  0
   -8.6127   -4.7153   21.9771 C   0  0  0  0  0  0  0  0  0  0  0  0
   -9.8688   -5.3912   22.1542 C   0  0  0  0  0  0  0  0  0  0  0  0
   -9.9674   -6.5351   21.3932 C   0  0  0  0  0  0  0  0  0  0  0  0
   -8.5464   -6.8263   20.4899 S   0  0  0  0  0  0  0  0  0  0  0  0
   -7.7890   -5.4326   21.1283 C   0  0  0  0  0  0  0  0  0  0  0  0
   -6.9005   -2.9903   22.3276 N   0  0  0  0  0  0  0  0  0  0  0  0
   -6.8177   -1.5625   22.0231 C   0  0  0  0  0  0  0  0  0  0  0  0
   -6.9184   -0.6404   23.2357 C   0  0  0  0  0  0  0  0  0  0  0  0
   -6.1562   -1.0704   24.4860 C   0  0  0  0  0  0  0  0  0  0  0  0
   -4.8347   -1.7894   24.2302 C   0  0  0  0  0  0  0  0  0  0  0  0
   -5.0160   -3.2899   23.9779 C   0  0  0  0  0  0  0  0  0  0  0  0
   -5.6395   -3.7008   22.6324 C   0  0  0  0  0  0  0  0  0  0  0  0
   -4.6741   -3.6110   21.4898 C   0  0  0  0  0  0  0  0  0  0  0  0
   -3.3691   -3.4451   21.4810 N   0  0  0  0  0  0  0  0  0  0  0  0
   -3.0891   -3.4525   20.1407 C   0  0  0  0  0  0  0  0  0  0  0  0
   -1.6490   -3.2827   19.5870 C   0  0  0  0  0  0  0  0  0  0  0  0
   -0.7430   -4.4842   19.4943 C   0  0  0  0  0  0  0  0  0  0  0  0
   -1.3059   -3.8746   18.2435 C   0  0  0  0  0  0  0  0  0  0  0  0
   -4.1488   -3.6119   19.3402 N   0  0  0  0  0  0  0  0  0  0  0  0
   -5.2115   -3.7178   20.2374 O   0  0  0  0  0  0  0  0  0  0  0  0
  1  2  2  0
  2  3  1  0
  3  4  4  0
  4  5  4  0
  5  6  4  0
  6  7  4  0
  2  8  1  0
  8  9  1  0
  9 10  1  0
 10 11  1  0
 11 12  1  0
 12 13  1  0
 13 14  1  0
 14 15  1  0
 15 16  4  0
 16 17  4  0
 17 18  1  0
 18 19  1  0
 19 20  1  0
 17 21  4  0
 21 22  4  0
  7  3  4  0
 14  8  1  0
 22 15  4  0
 20 18  1  0
M  END
