
     RDKit          3D

 33 35  0  0  0  0  0  0  0  0999 V2000
  -12.2421   -9.5316   19.6924 C   0  0  0  0  0  0  0  0  0  0  0  0
  -11.0968   -9.8546   20.4727 O   0  0  0  0  0  0  0  0  0  0  0  0
  -10.0983   -8.9236   20.5228 C   0  0  0  0  0  0  0  0  0  0  0  0
  -10.2428   -7.5813   20.8802 C   0  0  0  0  0  0  0  0  0  0  0  0
   -9.1289   -6.7321   20.8766 C   0  0  0  0  0  0  0  0  0  0  0  0
   -7.8706   -7.2063   20.4974 C   0  0  0  0  0  0  0  0  0  0  0  0
   -6.7590   -6.3671   20.5245 N   0  0  0  0  0  0  0  0  0  0  0  0
   -6.6015   -5.4130   21.3721 C   0  0  0  0  0  0  0  0  0  0  0  0
   -7.3952   -4.9463   22.3910 N   0  0  0  0  0  0  0  0  0  0  0  0
   -7.9954   -3.6244   22.4522 C   0  0  0  0  0  0  0  0  0  0  0  0
   -7.0782   -2.5895   23.0327 C   0  0  0  0  0  0  0  0  0  0  0  0
   -6.5926   -2.5230   24.3672 C   0  0  0  0  0  0  0  0  0  0  0  0
   -6.8782   -3.4490   25.4916 C   0  0  0  0  0  0  0  0  0  0  0  0
   -5.7764   -1.4792   24.5468 N   0  0  0  0  0  0  0  0  0  0  0  0
   -5.7454   -0.8693   23.3504 N   0  0  0  0  0  0  0  0  0  0  0  0
   -4.9531    0.3291   23.1932 C   0  0  0  0  0  0  0  0  0  0  0  0
   -6.4843   -1.5124   22.3894 C   0  0  0  0  0  0  0  0  0  0  0  0
   -6.5631   -1.0481   20.9798 C   0  0  0  0  0  0  0  0  0  0  0  0
   -5.4088   -4.7134   21.3110 N   0  0  0  0  0  0  0  0  0  0  0  0
   -4.1166   -5.1964   21.4982 C   0  0  0  0  0  0  0  0  0  0  0  0
   -3.8029   -6.3115   21.8987 O   0  0  0  0  0  0  0  0  0  0  0  0
   -3.0488   -4.2953   20.9815 C   0  0  0  0  0  0  0  0  0  0  0  0
   -2.9575   -3.9703   19.6245 C   0  0  0  0  0  0  0  0  0  0  0  0
   -1.9292   -3.1355   19.1674 C   0  0  0  0  0  0  0  0  0  0  0  0
   -0.9759   -2.5991   20.0503 C   0  0  0  0  0  0  0  0  0  0  0  0
    0.1607   -1.6712   19.5787 C   0  0  0  0  0  0  0  0  0  0  0  0
    1.4587   -2.0046   20.3494 C   0  0  0  0  0  0  0  0  0  0  0  0
   -0.2283   -0.2027   19.8456 C   0  0  0  0  0  0  0  0  0  0  0  0
    0.4830   -1.7942   18.0704 C   0  0  0  0  0  0  0  0  0  0  0  0
   -1.1000   -2.9274   21.4162 C   0  0  0  0  0  0  0  0  0  0  0  0
   -2.1259   -3.7583   21.8786 C   0  0  0  0  0  0  0  0  0  0  0  0
   -7.7244   -8.5542   20.1714 C   0  0  0  0  0  0  0  0  0  0  0  0
   -8.8339   -9.4042   20.1704 C   0  0  0  0  0  0  0  0  0  0  0  0
  1  2  1  0
  2  3  1  0
  3  4  4  0
  4  5  4  0
  5  6  4  0
  6  7  1  0
  7  8  2  0
  8  9  1  0
  9 10  1  0
 10 11  1  0
 11 12  4  0
 12 13  1  0
 12 14  4  0
 14 15  4  0
 15 16  1  0
 15 17  4  0
 17 18  1  0
  8 19  1  0
 19 20  1  0
 20 21  2  0
 20 22  1  0
 22 23  4  0
 23 24  4  0
 24 25  4  0
 25 26  1  0
 26 27  1  0
 26 28  1  0
 26 29  1  0
 25 30  4  0
 30 31  4  0
  6 32  4  0
 32 33  4  0
 33  3  4  0
 17 11  4  0
 31 22  4  0
M  END
