
     RDKit          3D

 23 24  0  0  0  0  0  0  0  0999 V2000
   -6.1977   -0.9188   25.3536 O   0  0  0  0  0  0  0  0  0  0  0  0
   -5.6038   -1.6053   24.3378 C   0  0  0  0  0  0  0  0  0  0  0  0
   -4.6738   -1.0043   23.5005 C   0  0  0  0  0  0  0  0  0  0  0  0
   -4.0865   -1.7450   22.4679 C   0  0  0  0  0  0  0  0  0  0  0  0
   -4.4219   -3.0963   22.2598 C   0  0  0  0  0  0  0  0  0  0  0  0
   -3.7931   -3.9627   21.1261 C   0  0  0  0  0  0  0  0  0  0  0  0
   -4.7353   -5.1601   20.7951 C   0  0  0  0  0  0  0  0  0  0  0  0
   -6.0289   -4.9074   20.2876 C   0  0  0  0  0  0  0  0  0  0  0  0
   -6.9028   -5.9512   19.9768 C   0  0  0  0  0  0  0  0  0  0  0  0
   -6.5006   -7.2639   20.1654 C   0  0  0  0  0  0  0  0  0  0  0  0
   -7.3831   -8.2523   19.8491 O   0  0  0  0  0  0  0  0  0  0  0  0
   -5.2361   -7.5499   20.6617 C   0  0  0  0  0  0  0  0  0  0  0  0
   -4.3589   -6.5047   20.9747 C   0  0  0  0  0  0  0  0  0  0  0  0
   -2.3781   -4.3624   21.5698 C   0  0  0  0  0  0  0  0  0  0  0  0
   -2.3986   -5.2823   22.5698 F   0  0  0  0  0  0  0  0  0  0  0  0
   -1.6637   -3.3123   22.0397 F   0  0  0  0  0  0  0  0  0  0  0  0
   -1.6463   -4.9135   20.5730 F   0  0  0  0  0  0  0  0  0  0  0  0
   -3.5165   -3.2066   19.8182 C   0  0  0  0  0  0  0  0  0  0  0  0
   -2.4514   -2.3699   19.9290 F   0  0  0  0  0  0  0  0  0  0  0  0
   -3.2365   -4.0290   18.7800 F   0  0  0  0  0  0  0  0  0  0  0  0
   -4.5609   -2.4363   19.4313 F   0  0  0  0  0  0  0  0  0  0  0  0
   -5.3711   -3.6743   23.1314 C   0  0  0  0  0  0  0  0  0  0  0  0
   -5.9564   -2.9336   24.1603 C   0  0  0  0  0  0  0  0  0  0  0  0
  1  2  1  0
  2  3  4  0
  3  4  4  0
  4  5  4  0
  5  6  1  0
  6  7  1  0
  7  8  4  0
  8  9  4  0
  9 10  4  0
 10 11  1  0
 10 12  4  0
 12 13  4  0
  6 14  1  0
 14 15  1  0
 14 16  1  0
 14 17  1  0
  6 18  1  0
 18 19  1  0
 18 20  1  0
 18 21  1  0
  5 22  4  0
 22 23  4  0
 23  2  4  0
 13  7  4  0
M  END
