
     RDKit          3D

 22 25  0  0  0  0  0  0  0  0999 V2000
  -13.8791   -2.6444  -29.5914 O   0  0  0  0  0  0  0  0  0  0  0  0
  -15.0876   -2.7697  -29.4102 C   0  0  0  0  0  0  0  0  0  0  0  0
  -16.0110   -2.5366  -30.5155 C   0  0  0  0  0  0  0  0  0  0  0  0
  -17.3237   -3.1029  -30.6264 C   0  0  0  0  0  0  0  0  0  0  0  0
  -17.9670   -2.7224  -31.7832 C   0  0  0  0  0  0  0  0  0  0  0  0
  -16.9889   -1.7140  -32.7572 S   0  0  0  0  0  0  0  0  0  0  0  0
  -15.6948   -1.7992  -31.6419 C   0  0  0  0  0  0  0  0  0  0  0  0
  -15.6242   -3.1713  -28.1811 N   0  0  0  0  0  0  0  0  0  0  0  0
  -17.0033   -2.7856  -27.8954 C   0  0  0  0  0  0  0  0  0  0  0  0
  -17.0793   -1.4088  -27.2395 C   0  0  0  0  0  0  0  0  0  0  0  0
  -16.6849   -1.3983  -25.7642 C   0  0  0  0  0  0  0  0  0  0  0  0
  -15.3035   -1.9766  -25.4573 C   0  0  0  0  0  0  0  0  0  0  0  0
  -15.2244   -3.4856  -25.6922 C   0  0  0  0  0  0  0  0  0  0  0  0
  -14.8546   -3.8749  -27.1362 C   0  0  0  0  0  0  0  0  0  0  0  0
  -15.0073   -5.3568  -27.3061 C   0  0  0  0  0  0  0  0  0  0  0  0
  -15.9264   -6.1782  -26.8453 N   0  0  0  0  0  0  0  0  0  0  0  0
  -15.5148   -7.3797  -27.3551 C   0  0  0  0  0  0  0  0  0  0  0  0
  -16.2925   -8.7001  -27.1104 C   0  0  0  0  0  0  0  0  0  0  0  0
  -16.4744   -9.2007  -25.6998 C   0  0  0  0  0  0  0  0  0  0  0  0
  -17.6472   -8.6410  -26.4509 C   0  0  0  0  0  0  0  0  0  0  0  0
  -14.3926   -7.3340  -28.0820 N   0  0  0  0  0  0  0  0  0  0  0  0
  -14.0496   -5.9820  -28.0534 O   0  0  0  0  0  0  0  0  0  0  0  0
  1  2  2  0
  2  3  1  0
  3  4  4  0
  4  5  4  0
  5  6  4  0
  6  7  4  0
  2  8  1  0
  8  9  1  0
  9 10  1  0
 10 11  1  0
 11 12  1  0
 12 13  1  0
 13 14  1  0
 14 15  1  0
 15 16  4  0
 16 17  4  0
 17 18  1  0
 18 19  1  0
 19 20  1  0
 17 21  4  0
 21 22  4  0
  7  3  4  0
 14  8  1  0
 22 15  4  0
 20 18  1  0
M  END
