
     RDKit          3D

 19 20  0  0  0  0  0  0  0  0999 V2000
  -16.2404   -2.4019  -32.8554 C   0  0  0  0  0  0  0  0  0  0  0  0
  -16.5996   -2.7633  -31.4843 N   0  0  0  0  0  0  0  0  0  0  0  0
  -18.0370   -3.0377  -31.4196 C   0  0  0  0  0  0  0  0  0  0  0  0
  -16.1914   -1.7875  -30.4565 C   0  0  0  0  0  0  0  0  0  0  0  0
  -14.9523   -0.9183  -30.7158 C   0  0  0  0  0  0  0  0  0  0  0  0
  -14.6370   -0.2824  -29.3620 C   0  0  0  0  0  0  0  0  0  0  0  0
  -15.3701   -1.1114  -28.3030 C   0  0  0  0  0  0  0  0  0  0  0  0
  -15.9355   -2.3464  -29.0252 C   0  0  2  0  0  0  0  0  0  0  0  0
  -14.9467   -3.4209  -28.9309 N   0  0  0  0  0  0  0  0  0  0  0  0
  -15.2593   -4.6258  -28.3321 C   0  0  0  0  0  0  0  0  0  0  0  0
  -16.3326   -4.8078  -27.4701 C   0  0  0  0  0  0  0  0  0  0  0  0
  -16.5465   -6.0599  -26.8920 C   0  0  0  0  0  0  0  0  0  0  0  0
  -15.6759   -7.1098  -27.1785 C   0  0  0  0  0  0  0  0  0  0  0  0
  -15.8280   -8.4722  -26.5835 C   0  0  0  0  0  0  0  0  0  0  0  0
  -16.8152   -8.5446  -25.6470 F   0  0  0  0  0  0  0  0  0  0  0  0
  -16.1264   -9.4267  -27.5086 F   0  0  0  0  0  0  0  0  0  0  0  0
  -14.6943   -8.8985  -25.9621 F   0  0  0  0  0  0  0  0  0  0  0  0
  -14.6139   -6.8328  -28.0217 C   0  0  0  0  0  0  0  0  0  0  0  0
  -14.3905   -5.6250  -28.5908 N   0  0  0  0  0  0  0  0  0  0  0  0
  1  2  1  0
  2  3  1  0
  4  2  1  0
  4  5  1  0
  5  6  1  0
  6  7  1  0
  7  8  1  0
  8  9  1  6
  9 10  1  0
 10 11  4  0
 11 12  4  0
 12 13  4  0
 13 14  1  0
 14 15  1  0
 14 16  1  0
 14 17  1  0
 13 18  4  0
 18 19  4  0
  8  4  1  0
 19 10  4  0
M  END
