
     RDKit          3D

 20 22  0  0  0  0  0  0  0  0999 V2000
  -11.6270   -2.3110  -25.1821 O   0  0  0  0  0  0  0  0  0  0  0  0
  -12.7768   -2.6430  -25.8342 C   0  0  0  0  0  0  0  0  0  0  0  0
  -12.7650   -3.4578  -26.9582 C   0  0  0  0  0  0  0  0  0  0  0  0
  -13.9692   -3.7751  -27.5986 C   0  0  0  0  0  0  0  0  0  0  0  0
  -15.1999   -3.2779  -27.1308 C   0  0  0  0  0  0  0  0  0  0  0  0
  -16.5652   -3.6089  -27.8077 C   0  0  0  0  0  0  0  0  0  0  0  0
  -16.9791   -5.0427  -27.3707 C   0  0  0  0  0  0  0  0  0  0  0  0
  -16.0098   -6.0673  -27.3179 C   0  0  0  0  0  0  0  0  0  0  0  0
  -16.3375   -7.3650  -26.9162 C   0  0  0  0  0  0  0  0  0  0  0  0
  -17.6380   -7.6598  -26.5414 C   0  0  0  0  0  0  0  0  0  0  0  0
  -17.9182   -8.9363  -26.1555 O   0  0  0  0  0  0  0  0  0  0  0  0
  -18.6135   -6.6729  -26.5511 C   0  0  0  0  0  0  0  0  0  0  0  0
  -18.2817   -5.3733  -26.9541 C   0  0  0  0  0  0  0  0  0  0  0  0
  -16.4859   -3.5382  -29.3737 C   0  0  0  0  0  0  0  0  0  0  0  0
  -17.8445   -3.6547  -30.0664 C   0  0  0  0  0  0  0  0  0  0  0  0
  -18.7732   -2.5339  -29.6262 C   0  0  0  0  0  0  0  0  0  0  0  0
  -18.9232   -2.5057  -28.1134 C   0  0  0  0  0  0  0  0  0  0  0  0
  -17.5708   -2.4771  -27.3897 C   0  0  0  0  0  0  0  0  0  0  0  0
  -15.1717   -2.4631  -25.9784 C   0  0  0  0  0  0  0  0  0  0  0  0
  -13.9711   -2.1456  -25.3384 C   0  0  0  0  0  0  0  0  0  0  0  0
  1  2  1  0
  2  3  4  0
  3  4  4  0
  4  5  4  0
  5  6  1  0
  6  7  1  0
  7  8  4  0
  8  9  4  0
  9 10  4  0
 10 11  1  0
 10 12  4  0
 12 13  4  0
  6 14  1  0
 14 15  1  0
 15 16  1  0
 16 17  1  0
 17 18  1  0
  5 19  4  0
 19 20  4  0
 20  2  4  0
 18  6  1  0
 13  7  4  0
M  END
