
     RDKit          3D

 23 24  0  0  0  0  0  0  0  0999 V2000
  -15.5333   -2.0666  -32.7164 O   0  0  0  0  0  0  0  0  0  0  0  0
  -15.6987   -2.2870  -31.3822 C   0  0  0  0  0  0  0  0  0  0  0  0
  -14.9458   -1.6074  -30.4344 C   0  0  0  0  0  0  0  0  0  0  0  0
  -15.1465   -1.8632  -29.0727 C   0  0  0  0  0  0  0  0  0  0  0  0
  -16.1031   -2.8019  -28.6419 C   0  0  0  0  0  0  0  0  0  0  0  0
  -16.3648   -3.1187  -27.1378 C   0  0  0  0  0  0  0  0  0  0  0  0
  -16.5327   -4.6569  -26.9456 C   0  0  0  0  0  0  0  0  0  0  0  0
  -15.4832   -5.5235  -27.3229 C   0  0  0  0  0  0  0  0  0  0  0  0
  -15.5928   -6.9066  -27.1658 C   0  0  0  0  0  0  0  0  0  0  0  0
  -16.7497   -7.4481  -26.6285 C   0  0  0  0  0  0  0  0  0  0  0  0
  -16.8157   -8.8019  -26.4916 O   0  0  0  0  0  0  0  0  0  0  0  0
  -17.8014   -6.6267  -26.2457 C   0  0  0  0  0  0  0  0  0  0  0  0
  -17.6938   -5.2398  -26.4033 C   0  0  0  0  0  0  0  0  0  0  0  0
  -17.5680   -2.2795  -26.6830 C   0  0  0  0  0  0  0  0  0  0  0  0
  -17.2909   -0.9491  -26.6845 F   0  0  0  0  0  0  0  0  0  0  0  0
  -17.9657   -2.5792  -25.4237 F   0  0  0  0  0  0  0  0  0  0  0  0
  -18.6525   -2.4339  -27.4785 F   0  0  0  0  0  0  0  0  0  0  0  0
  -15.2626   -2.6428  -26.1799 C   0  0  0  0  0  0  0  0  0  0  0  0
  -14.0487   -3.1616  -26.5021 F   0  0  0  0  0  0  0  0  0  0  0  0
  -15.1041   -1.2983  -26.1810 F   0  0  0  0  0  0  0  0  0  0  0  0
  -15.4969   -3.0040  -24.8960 F   0  0  0  0  0  0  0  0  0  0  0  0
  -16.8508   -3.4734  -29.6342 C   0  0  0  0  0  0  0  0  0  0  0  0
  -16.6485   -3.2175  -30.9919 C   0  0  0  0  0  0  0  0  0  0  0  0
  1  2  1  0
  2  3  4  0
  3  4  4  0
  4  5  4  0
  5  6  1  0
  6  7  1  0
  7  8  4  0
  8  9  4  0
  9 10  4  0
 10 11  1  0
 10 12  4  0
 12 13  4  0
  6 14  1  0
 14 15  1  0
 14 16  1  0
 14 17  1  0
  6 18  1  0
 18 19  1  0
 18 20  1  0
 18 21  1  0
  5 22  4  0
 22 23  4  0
 23  2  4  0
 13  7  4  0
M  END
