
     RDKit          3D

 17 18  0  0  0  0  0  0  0  0999 V2000
  -15.4011   -2.6828  -25.7182 O   0  0  0  0  0  0  0  0  0  0  0  0
  -16.4150   -3.0487  -26.6906 S   0  0  0  0  0  6  0  0  0  0  0  0
  -17.7494   -2.4821  -26.6155 O   0  0  0  0  0  0  0  0  0  0  0  0
  -15.7894   -2.6571  -28.3088 C   0  0  0  0  0  0  0  0  0  0  0  0
  -15.2228   -1.4023  -28.5561 C   0  0  0  0  0  0  0  0  0  0  0  0
  -14.7326   -1.1088  -29.8300 C   0  0  0  0  0  0  0  0  0  0  0  0
  -14.8201   -2.0688  -30.8359 C   0  0  0  0  0  0  0  0  0  0  0  0
  -14.3536   -1.8228  -32.0929 O   0  0  0  0  0  0  0  0  0  0  0  0
  -15.3921   -3.3147  -30.5933 C   0  0  0  0  0  0  0  0  0  0  0  0
  -15.8852   -3.6146  -29.3238 C   0  0  0  0  0  0  0  0  0  0  0  0
  -16.5663   -4.8194  -26.6219 C   0  0  0  0  0  0  0  0  0  0  0  0
  -17.7802   -5.4048  -26.2471 C   0  0  0  0  0  0  0  0  0  0  0  0
  -17.8866   -6.7961  -26.2002 C   0  0  0  0  0  0  0  0  0  0  0  0
  -16.7803   -7.5792  -26.5228 C   0  0  0  0  0  0  0  0  0  0  0  0
  -16.8418   -8.9406  -26.4897 O   0  0  0  0  0  0  0  0  0  0  0  0
  -15.5691   -6.9975  -26.8870 C   0  0  0  0  0  0  0  0  0  0  0  0
  -15.4548   -5.6085  -26.9347 C   0  0  0  0  0  0  0  0  0  0  0  0
  1  2  2  0
  2  3  2  0
  2  4  1  0
  4  5  4  0
  5  6  4  0
  6  7  4  0
  7  8  1  0
  7  9  4  0
  9 10  4  0
  2 11  1  0
 11 12  4  0
 12 13  4  0
 13 14  4  0
 14 15  1  0
 14 16  4  0
 16 17  4  0
 10  4  4  0
 17 11  4  0
M  END
