
     RDKit          3D

 33 35  0  0  0  0  0  0  0  0999 V2000
  -22.8215    6.4758  -24.1235 C   0  0  0  0  0  0  0  0  0  0  0  0
  -22.2822    5.5539  -25.0640 O   0  0  0  0  0  0  0  0  0  0  0  0
  -23.0409    4.4473  -25.3401 C   0  0  0  0  0  0  0  0  0  0  0  0
  -24.3968    4.7056  -25.5561 C   0  0  0  0  0  0  0  0  0  0  0  0
  -25.2811    3.6628  -25.8487 C   0  0  0  0  0  0  0  0  0  0  0  0
  -24.8245    2.3452  -25.9058 C   0  0  0  0  0  0  0  0  0  0  0  0
  -25.6963    1.3146  -26.2489 N   0  0  0  0  0  0  0  0  0  0  0  0
  -25.7267    0.1557  -25.6697 C   0  0  0  0  0  0  0  0  0  0  0  0
  -26.6416   -0.7911  -26.0584 N   0  0  0  0  0  0  0  0  0  0  0  0
  -26.7835   -1.1861  -27.4548 C   0  0  0  0  0  0  0  0  0  0  0  0
  -26.3696   -2.5868  -27.7719 C   0  0  0  0  0  0  0  0  0  0  0  0
  -26.6296   -3.7573  -27.0055 C   0  0  0  0  0  0  0  0  0  0  0  0
  -27.3950   -3.8820  -25.7394 C   0  0  0  0  0  0  0  0  0  0  0  0
  -26.0948   -4.8464  -27.5670 N   0  0  0  0  0  0  0  0  0  0  0  0
  -25.5254   -4.3953  -28.6954 N   0  0  0  0  0  0  0  0  0  0  0  0
  -24.8497   -5.3323  -29.5618 C   0  0  0  0  0  0  0  0  0  0  0  0
  -25.6600   -3.0422  -28.8749 C   0  0  0  0  0  0  0  0  0  0  0  0
  -25.1281   -2.3228  -30.0612 C   0  0  0  0  0  0  0  0  0  0  0  0
  -24.9655   -0.3005  -24.6114 N   0  0  0  0  0  0  0  0  0  0  0  0
  -24.2561   -1.4866  -24.5128 C   0  0  0  0  0  0  0  0  0  0  0  0
  -23.6127   -1.9618  -25.4427 O   0  0  0  0  0  0  0  0  0  0  0  0
  -24.4794   -2.2768  -23.2655 C   0  0  0  0  0  0  0  0  0  0  0  0
  -25.7496   -2.7998  -23.0183 C   0  0  0  0  0  0  0  0  0  0  0  0
  -25.9902   -3.5576  -21.8672 C   0  0  0  0  0  0  0  0  0  0  0  0
  -24.9695   -3.8254  -20.9347 C   0  0  0  0  0  0  0  0  0  0  0  0
  -25.2707   -4.6657  -19.6800 C   0  0  0  0  0  0  0  0  0  0  0  0
  -24.2563   -4.4602  -18.5314 C   0  0  0  0  0  0  0  0  0  0  0  0
  -25.2480   -6.1690  -20.0363 C   0  0  0  0  0  0  0  0  0  0  0  0
  -26.6628   -4.2908  -19.1327 C   0  0  0  0  0  0  0  0  0  0  0  0
  -23.6943   -3.3026  -21.2086 C   0  0  0  0  0  0  0  0  0  0  0  0
  -23.4479   -2.5417  -22.3596 C   0  0  0  0  0  0  0  0  0  0  0  0
  -23.4644    2.0931  -25.7235 C   0  0  0  0  0  0  0  0  0  0  0  0
  -22.5751    3.1348  -25.4301 C   0  0  0  0  0  0  0  0  0  0  0  0
  1  2  1  0
  2  3  1  0
  3  4  4  0
  4  5  4  0
  5  6  4  0
  6  7  1  0
  7  8  2  0
  8  9  1  0
  9 10  1  0
 10 11  1  0
 11 12  4  0
 12 13  1  0
 12 14  4  0
 14 15  4  0
 15 16  1  0
 15 17  4  0
 17 18  1  0
  8 19  1  0
 19 20  1  0
 20 21  2  0
 20 22  1  0
 22 23  4  0
 23 24  4  0
 24 25  4  0
 25 26  1  0
 26 27  1  0
 26 28  1  0
 26 29  1  0
 25 30  4  0
 30 31  4  0
  6 32  4  0
 32 33  4  0
 33  3  4  0
 17 11  4  0
 31 22  4  0
M  END
