
     RDKit          3D

 17 18  0  0  0  0  0  0  0  0999 V2000
   47.8527    4.9593    4.5717 O   0  0  0  0  0  0  0  0  0  0  0  0
   47.8329    6.3005    4.0164 S   0  0  0  0  0  6  0  0  0  0  0  0
   48.8470    7.2698    4.3896 O   0  0  0  0  0  0  0  0  0  0  0  0
   47.8745    6.1164    2.2479 C   0  0  0  0  0  0  0  0  0  0  0  0
   47.5091    4.8898    1.6841 C   0  0  0  0  0  0  0  0  0  0  0  0
   47.5353    4.7413    0.2978 C   0  0  0  0  0  0  0  0  0  0  0  0
   47.9306    5.8085   -0.5042 C   0  0  0  0  0  0  0  0  0  0  0  0
   47.9409    5.6139   -1.8534 O   0  0  0  0  0  0  0  0  0  0  0  0
   48.3055    7.0284    0.0546 C   0  0  0  0  0  0  0  0  0  0  0  0
   48.2804    7.1851    1.4417 C   0  0  0  0  0  0  0  0  0  0  0  0
   46.2617    7.0344    4.4114 C   0  0  0  0  0  0  0  0  0  0  0  0
   45.5236    7.6474    3.3938 C   0  0  0  0  0  0  0  0  0  0  0  0
   44.2889    8.2203    3.6969 C   0  0  0  0  0  0  0  0  0  0  0  0
   43.8116    8.1823    5.0042 C   0  0  0  0  0  0  0  0  0  0  0  0
   42.6003    8.7569    5.2506 O   0  0  0  0  0  0  0  0  0  0  0  0
   44.5491    7.5819    6.0224 C   0  0  0  0  0  0  0  0  0  0  0  0
   45.7855    7.0049    5.7264 C   0  0  0  0  0  0  0  0  0  0  0  0
  1  2  2  0
  2  3  2  0
  2  4  1  0
  4  5  4  0
  5  6  4  0
  6  7  4  0
  7  8  1  0
  7  9  4  0
  9 10  4  0
  2 11  1  0
 11 12  4  0
 12 13  4  0
 13 14  4  0
 14 15  1  0
 14 16  4  0
 16 17  4  0
 10  4  4  0
 17 11  4  0
M  END
