
     RDKit          3D

 19 20  0  0  0  0  0  0  0  0999 V2000
   46.6022    7.4426    6.9164 C   0  0  0  0  0  0  0  0  0  0  0  0
   47.5059    7.4909    5.7678 N   0  0  0  0  0  0  0  0  0  0  0  0
   48.8310    7.0086    6.1695 C   0  0  0  0  0  0  0  0  0  0  0  0
   47.0272    6.7688    4.5627 C   0  0  2  0  0  0  0  0  0  0  0  0
   47.2639    5.2445    4.7200 C   0  0  0  0  0  0  0  0  0  0  0  0
   48.0473    4.7823    3.4966 C   0  0  0  0  0  0  0  0  0  0  0  0
   48.6921    6.0406    2.9378 C   0  0  0  0  0  0  0  0  0  0  0  0
   47.6459    7.1356    3.1750 C   0  0  1  0  0  0  0  0  0  0  0  0
   46.6534    7.0588    2.0857 N   0  0  0  0  0  0  0  0  0  0  0  0
   46.7197    8.0498    1.0988 C   0  0  0  0  0  0  0  0  0  0  0  0
   47.7835    8.0079    0.2001 C   0  0  0  0  0  0  0  0  0  0  0  0
   47.9059    8.9963   -0.7764 C   0  0  0  0  0  0  0  0  0  0  0  0
   46.9696   10.0270   -0.8303 C   0  0  0  0  0  0  0  0  0  0  0  0
   47.0193   11.1130   -1.8569 C   0  0  0  0  0  0  0  0  0  0  0  0
   47.7389   10.7548   -2.9554 F   0  0  0  0  0  0  0  0  0  0  0  0
   45.7875   11.4671   -2.3174 F   0  0  0  0  0  0  0  0  0  0  0  0
   47.5878   12.2625   -1.3974 F   0  0  0  0  0  0  0  0  0  0  0  0
   45.9482    9.9982    0.1039 C   0  0  0  0  0  0  0  0  0  0  0  0
   45.8145    9.0448    1.0568 N   0  0  0  0  0  0  0  0  0  0  0  0
  1  2  1  0
  2  3  1  0
  4  2  1  1
  4  5  1  0
  5  6  1  0
  6  7  1  0
  7  8  1  0
  8  9  1  6
  9 10  1  0
 10 11  4  0
 11 12  4  0
 12 13  4  0
 13 14  1  0
 14 15  1  0
 14 16  1  0
 14 17  1  0
 13 18  4  0
 18 19  4  0
  8  4  1  0
 19 10  4  0
M  END
