
     RDKit          3D

 33 35  0  0  0  0  0  0  0  0999 V2000
   49.8247    6.0318    9.3762 C   0  0  0  0  0  0  0  0  0  0  0  0
   50.6196    5.4578    8.3471 O   0  0  0  0  0  0  0  0  0  0  0  0
   50.0667    5.4148    7.0962 C   0  0  0  0  0  0  0  0  0  0  0  0
   49.5620    4.2790    6.4619 C   0  0  0  0  0  0  0  0  0  0  0  0
   49.0225    4.3776    5.1738 C   0  0  0  0  0  0  0  0  0  0  0  0
   48.9649    5.6090    4.5165 C   0  0  0  0  0  0  0  0  0  0  0  0
   48.4702    5.7039    3.2178 N   0  0  0  0  0  0  0  0  0  0  0  0
   47.5725    6.5547    2.8585 C   0  0  0  0  0  0  0  0  0  0  0  0
   46.9511    7.5605    3.5581 N   0  0  0  0  0  0  0  0  0  0  0  0
   45.5087    7.7660    3.5685 C   0  0  0  0  0  0  0  0  0  0  0  0
   44.8901    7.5490    4.9165 C   0  0  0  0  0  0  0  0  0  0  0  0
   43.5729    7.8950    5.3224 C   0  0  0  0  0  0  0  0  0  0  0  0
   42.5145    8.5665    4.5266 C   0  0  0  0  0  0  0  0  0  0  0  0
   43.3325    7.5296    6.5842 N   0  0  0  0  0  0  0  0  0  0  0  0
   44.4791    6.9616    6.9952 N   0  0  0  0  0  0  0  0  0  0  0  0
   44.5467    6.4572    8.3474 C   0  0  0  0  0  0  0  0  0  0  0  0
   45.4548    6.9474    6.0319 C   0  0  0  0  0  0  0  0  0  0  0  0
   46.8092    6.3763    6.2424 C   0  0  0  0  0  0  0  0  0  0  0  0
   47.0970    6.4561    1.5629 N   0  0  0  0  0  0  0  0  0  0  0  0
   47.8228    6.5865    0.3825 C   0  0  0  0  0  0  0  0  0  0  0  0
   48.7298    5.8547    0.0044 O   0  0  0  0  0  0  0  0  0  0  0  0
   47.5538    7.8423   -0.3738 C   0  0  0  0  0  0  0  0  0  0  0  0
   46.5240    8.6805    0.0541 C   0  0  0  0  0  0  0  0  0  0  0  0
   46.2436    9.8623   -0.6399 C   0  0  0  0  0  0  0  0  0  0  0  0
   46.9838   10.2427   -1.7770 C   0  0  0  0  0  0  0  0  0  0  0  0
   46.6512   11.5530   -2.5132 C   0  0  0  0  0  0  0  0  0  0  0  0
   45.1504   11.8659   -2.3330 C   0  0  0  0  0  0  0  0  0  0  0  0
   46.9632   11.4183   -4.0215 C   0  0  0  0  0  0  0  0  0  0  0  0
   47.4482   12.7746   -1.9994 C   0  0  0  0  0  0  0  0  0  0  0  0
   48.0364    9.3990   -2.1721 C   0  0  0  0  0  0  0  0  0  0  0  0
   48.3234    8.2146   -1.4796 C   0  0  0  0  0  0  0  0  0  0  0  0
   49.4932    6.7367    5.1434 C   0  0  0  0  0  0  0  0  0  0  0  0
   50.0292    6.6423    6.4304 C   0  0  0  0  0  0  0  0  0  0  0  0
  1  2  1  0
  2  3  1  0
  3  4  4  0
  4  5  4  0
  5  6  4  0
  6  7  1  0
  7  8  2  0
  8  9  1  0
  9 10  1  0
 10 11  1  0
 11 12  4  0
 12 13  1  0
 12 14  4  0
 14 15  4  0
 15 16  1  0
 15 17  4  0
 17 18  1  0
  8 19  1  0
 19 20  1  0
 20 21  2  0
 20 22  1  0
 22 23  4  0
 23 24  4  0
 24 25  4  0
 25 26  1  0
 26 27  1  0
 26 28  1  0
 26 29  1  0
 25 30  4  0
 30 31  4  0
  6 32  4  0
 32 33  4  0
 33  3  4  0
 17 11  4  0
 31 22  4  0
M  END
