
     RDKit          3D

 20 22  0  0  0  0  0  0  0  0999 V2000
   46.7761   11.1990   -0.7229 O   0  0  0  0  0  0  0  0  0  0  0  0
   46.8637    9.9891   -0.1018 C   0  0  0  0  0  0  0  0  0  0  0  0
   45.8194    9.6060    0.7240 C   0  0  0  0  0  0  0  0  0  0  0  0
   45.8727    8.3734    1.3788 C   0  0  0  0  0  0  0  0  0  0  0  0
   46.9739    7.5026    1.2253 C   0  0  0  0  0  0  0  0  0  0  0  0
   46.9738    6.1388    1.9737 C   0  0  0  0  0  0  0  0  0  0  0  0
   46.8650    6.4190    3.5021 C   0  0  0  0  0  0  0  0  0  0  0  0
   47.9385    6.2477    4.3946 C   0  0  0  0  0  0  0  0  0  0  0  0
   47.7919    6.5084    5.7623 C   0  0  0  0  0  0  0  0  0  0  0  0
   46.5681    6.9447    6.2532 C   0  0  0  0  0  0  0  0  0  0  0  0
   46.3853    7.2090    7.5779 O   0  0  0  0  0  0  0  0  0  0  0  0
   45.4902    7.1258    5.4008 C   0  0  0  0  0  0  0  0  0  0  0  0
   45.6370    6.8656    4.0367 C   0  0  0  0  0  0  0  0  0  0  0  0
   45.7843    5.1749    1.6290 C   0  0  0  0  0  0  0  0  0  0  0  0
   46.0064    4.2256    0.4414 C   0  0  0  0  0  0  0  0  0  0  0  0
   47.0375    4.7081   -0.5640 C   0  0  0  0  0  0  0  0  0  0  0  0
   48.3760    5.0403    0.0871 C   0  0  0  0  0  0  0  0  0  0  0  0
   48.2752    5.3710    1.5810 C   0  0  0  0  0  0  0  0  0  0  0  0
   48.0101    7.9203    0.3714 C   0  0  0  0  0  0  0  0  0  0  0  0
   47.9590    9.1561   -0.2855 C   0  0  0  0  0  0  0  0  0  0  0  0
  1  2  1  0
  2  3  4  0
  3  4  4  0
  4  5  4  0
  5  6  1  0
  6  7  1  0
  7  8  4  0
  8  9  4  0
  9 10  4  0
 10 11  1  0
 10 12  4  0
 12 13  4  0
  6 14  1  0
 14 15  1  0
 15 16  1  0
 16 17  1  0
 17 18  1  0
  5 19  4  0
 19 20  4  0
 20  2  4  0
 18  6  1  0
 13  7  4  0
M  END
