
     RDKit          3D

 23 24  0  0  0  0  0  0  0  0999 V2000
   46.7400   11.3794   -1.7170 O   0  0  0  0  0  0  0  0  0  0  0  0
   46.8017   10.1633   -1.1061 C   0  0  0  0  0  0  0  0  0  0  0  0
   47.5515    9.1215   -1.6348 C   0  0  0  0  0  0  0  0  0  0  0  0
   47.5883    7.8867   -0.9759 C   0  0  0  0  0  0  0  0  0  0  0  0
   46.8757    7.6786    0.2202 C   0  0  0  0  0  0  0  0  0  0  0  0
   46.8880    6.3235    0.9914 C   0  0  0  0  0  0  0  0  0  0  0  0
   47.2144    6.5769    2.4949 C   0  0  0  0  0  0  0  0  0  0  0  0
   46.2615    7.2215    3.3142 C   0  0  0  0  0  0  0  0  0  0  0  0
   46.5139    7.4657    4.6657 C   0  0  0  0  0  0  0  0  0  0  0  0
   47.7195    7.0697    5.2226 C   0  0  0  0  0  0  0  0  0  0  0  0
   47.9254    7.3261    6.5446 O   0  0  0  0  0  0  0  0  0  0  0  0
   48.6791    6.4328    4.4476 C   0  0  0  0  0  0  0  0  0  0  0  0
   48.4283    6.1879    3.0922 C   0  0  0  0  0  0  0  0  0  0  0  0
   47.8649    5.3819    0.2719 C   0  0  0  0  0  0  0  0  0  0  0  0
   48.0044    4.1976    0.9236 F   0  0  0  0  0  0  0  0  0  0  0  0
   49.1105    5.9034    0.1692 F   0  0  0  0  0  0  0  0  0  0  0  0
   47.4711    5.0699   -0.9853 F   0  0  0  0  0  0  0  0  0  0  0  0
   45.5728    5.5333    0.9225 C   0  0  0  0  0  0  0  0  0  0  0  0
   45.1605    5.3410   -0.3580 F   0  0  0  0  0  0  0  0  0  0  0  0
   45.6669    4.2994    1.4717 F   0  0  0  0  0  0  0  0  0  0  0  0
   44.5538    6.1621    1.5550 F   0  0  0  0  0  0  0  0  0  0  0  0
   46.1246    8.7612    0.7286 C   0  0  0  0  0  0  0  0  0  0  0  0
   46.0884    9.9917    0.0695 C   0  0  0  0  0  0  0  0  0  0  0  0
  1  2  1  0
  2  3  4  0
  3  4  4  0
  4  5  4  0
  5  6  1  0
  6  7  1  0
  7  8  4  0
  8  9  4  0
  9 10  4  0
 10 11  1  0
 10 12  4  0
 12 13  4  0
  6 14  1  0
 14 15  1  0
 14 16  1  0
 14 17  1  0
  6 18  1  0
 18 19  1  0
 18 20  1  0
 18 21  1  0
  5 22  4  0
 22 23  4  0
 23  2  4  0
 13  7  4  0
M  END
