
     RDKit          3D

 22 25  0  0  0  0  0  0  0  0999 V2000
   45.3105    7.5768    2.9659 O   0  0  0  0  0  0  0  0  0  0  0  0
   46.4262    7.0608    2.9669 C   0  0  0  0  0  0  0  0  0  0  0  0
   47.1489    6.8906    4.2238 C   0  0  0  0  0  0  0  0  0  0  0  0
   48.5389    7.1623    4.4633 C   0  0  0  0  0  0  0  0  0  0  0  0
   48.9078    6.9275    5.7693 C   0  0  0  0  0  0  0  0  0  0  0  0
   47.5866    6.4133    6.7239 S   0  0  0  0  0  0  0  0  0  0  0  0
   46.5147    6.5204    5.3958 C   0  0  0  0  0  0  0  0  0  0  0  0
   47.0289    6.6116    1.7885 N   0  0  0  0  0  0  0  0  0  0  0  0
   48.2581    5.8209    1.7299 C   0  0  0  0  0  0  0  0  0  0  0  0
   47.9831    4.3150    1.7572 C   0  0  0  0  0  0  0  0  0  0  0  0
   46.6412    3.8745    1.1724 C   0  0  0  0  0  0  0  0  0  0  0  0
   46.3629    4.3197   -0.2609 C   0  0  0  0  0  0  0  0  0  0  0  0
   46.6079    5.7949   -0.5880 C   0  0  0  0  0  0  0  0  0  0  0  0
   46.2555    6.7863    0.5398 C   0  0  0  0  0  0  0  0  0  0  0  0
   46.4765    8.1883    0.0495 C   0  0  0  0  0  0  0  0  0  0  0  0
   46.9396    8.6162   -1.1071 N   0  0  0  0  0  0  0  0  0  0  0  0
   46.8854    9.9745   -0.9450 C   0  0  0  0  0  0  0  0  0  0  0  0
   47.3511   10.9647   -2.0462 C   0  0  0  0  0  0  0  0  0  0  0  0
   46.3506   11.9256   -2.6370 C   0  0  0  0  0  0  0  0  0  0  0  0
   47.4332   12.4371   -1.7319 C   0  0  0  0  0  0  0  0  0  0  0  0
   46.3861   10.3906    0.2243 N   0  0  0  0  0  0  0  0  0  0  0  0
   46.1183    9.1970    0.8975 O   0  0  0  0  0  0  0  0  0  0  0  0
  1  2  2  0
  2  3  1  0
  3  4  4  0
  4  5  4  0
  5  6  4  0
  6  7  4  0
  2  8  1  0
  8  9  1  0
  9 10  1  0
 10 11  1  0
 11 12  1  0
 12 13  1  0
 13 14  1  0
 14 15  1  0
 15 16  4  0
 16 17  4  0
 17 18  1  0
 18 19  1  0
 19 20  1  0
 17 21  4  0
 21 22  4  0
  7  3  4  0
 14  8  1  0
 22 15  4  0
 20 18  1  0
M  END
