
     RDKit          3D

 33 35  0  0  0  0  0  0  0  0999 V2000
   21.0178   10.6853   65.4853 C   0  0  0  0  0  0  0  0  0  0  0  0
   22.0964   10.7812   64.5641 O   0  0  0  0  0  0  0  0  0  0  0  0
   21.7652   10.8453   63.2367 C   0  0  0  0  0  0  0  0  0  0  0  0
   20.9420    9.9515   62.5524 C   0  0  0  0  0  0  0  0  0  0  0  0
   20.6947   10.1325   61.1868 C   0  0  0  0  0  0  0  0  0  0  0  0
   21.2574   11.2079   60.4924 C   0  0  0  0  0  0  0  0  0  0  0  0
   21.0569   11.3685   59.1157 N   0  0  0  0  0  0  0  0  0  0  0  0
   21.8610   10.8293   58.2625 C   0  0  0  0  0  0  0  0  0  0  0  0
   22.9032    9.9695   58.5247 N   0  0  0  0  0  0  0  0  0  0  0  0
   22.6587    8.8563   59.4432 C   0  0  0  0  0  0  0  0  0  0  0  0
   23.8085    8.5618   60.3583 C   0  0  0  0  0  0  0  0  0  0  0  0
   23.7450    8.0951   61.6997 C   0  0  0  0  0  0  0  0  0  0  0  0
   22.5438    7.7642   62.5059 C   0  0  0  0  0  0  0  0  0  0  0  0
   24.9597    7.9973   62.2481 N   0  0  0  0  0  0  0  0  0  0  0  0
   25.8010    8.3478   61.2643 N   0  0  0  0  0  0  0  0  0  0  0  0
   27.2243    8.3183   61.5075 C   0  0  0  0  0  0  0  0  0  0  0  0
   25.1632    8.7255   60.1124 C   0  0  0  0  0  0  0  0  0  0  0  0
   25.8903    9.1993   58.9065 C   0  0  0  0  0  0  0  0  0  0  0  0
   21.6992   11.0975   56.9174 N   0  0  0  0  0  0  0  0  0  0  0  0
   21.6673   12.3318   56.2786 C   0  0  0  0  0  0  0  0  0  0  0  0
   21.9555   13.4220   56.7569 O   0  0  0  0  0  0  0  0  0  0  0  0
   21.3189   12.2671   54.8299 C   0  0  0  0  0  0  0  0  0  0  0  0
   20.3771   13.1228   54.2523 C   0  0  0  0  0  0  0  0  0  0  0  0
   20.0817   13.0150   52.8884 C   0  0  0  0  0  0  0  0  0  0  0  0
   20.7149   12.0597   52.0669 C   0  0  0  0  0  0  0  0  0  0  0  0
   20.3611   11.9704   50.5712 C   0  0  0  0  0  0  0  0  0  0  0  0
   19.3032   13.0000   50.1150 C   0  0  0  0  0  0  0  0  0  0  0  0
   19.7980   10.5676   50.2605 C   0  0  0  0  0  0  0  0  0  0  0  0
   21.6256   12.2101   49.7195 C   0  0  0  0  0  0  0  0  0  0  0  0
   21.6723   11.2252   52.6670 C   0  0  0  0  0  0  0  0  0  0  0  0
   21.9761   11.3312   54.0291 C   0  0  0  0  0  0  0  0  0  0  0  0
   22.0960   12.0860   61.1778 C   0  0  0  0  0  0  0  0  0  0  0  0
   22.3370   11.9142   62.5435 C   0  0  0  0  0  0  0  0  0  0  0  0
  1  2  1  0
  2  3  1  0
  3  4  4  0
  4  5  4  0
  5  6  4  0
  6  7  1  0
  7  8  2  0
  8  9  1  0
  9 10  1  0
 10 11  1  0
 11 12  4  0
 12 13  1  0
 12 14  4  0
 14 15  4  0
 15 16  1  0
 15 17  4  0
 17 18  1  0
  8 19  1  0
 19 20  1  0
 20 21  2  0
 20 22  1  0
 22 23  4  0
 23 24  4  0
 24 25  4  0
 25 26  1  0
 26 27  1  0
 26 28  1  0
 26 29  1  0
 25 30  4  0
 30 31  4  0
  6 32  4  0
 32 33  4  0
 33  3  4  0
 17 11  4  0
 31 22  4  0
M  END
