
     RDKit          3D

 19 20  0  0  0  0  0  0  0  0999 V2000
   22.0569   11.7879   54.8423 C   0  0  0  0  0  0  0  0  0  0  0  0
   22.4719   12.3530   56.1260 N   0  0  0  0  0  0  0  0  0  0  0  0
   22.7977   13.7697   55.9456 C   0  0  0  0  0  0  0  0  0  0  0  0
   23.5677   11.6304   56.7987 C   0  0  0  0  0  0  0  0  0  0  0  0
   23.9207   10.2148   56.3197 C   0  0  0  0  0  0  0  0  0  0  0  0
   24.8394    9.6576   57.4068 C   0  0  0  0  0  0  0  0  0  0  0  0
   24.6354   10.5313   58.6483 C   0  0  0  0  0  0  0  0  0  0  0  0
   23.4474   11.4595   58.3423 C   0  0  0  0  0  0  0  0  0  0  0  0
   22.2263   10.8065   58.8153 N   0  0  0  0  0  0  0  0  0  0  0  0
   22.0408   10.5286   60.1557 C   0  0  0  0  0  0  0  0  0  0  0  0
   22.4127   11.3848   61.1837 C   0  0  0  0  0  0  0  0  0  0  0  0
   22.2094   10.9979   62.5091 C   0  0  0  0  0  0  0  0  0  0  0  0
   21.6449    9.7542   62.7859 C   0  0  0  0  0  0  0  0  0  0  0  0
   21.4144    9.2621   64.1780 C   0  0  0  0  0  0  0  0  0  0  0  0
   22.5603    9.1484   64.9065 F   0  0  0  0  0  0  0  0  0  0  0  0
   20.5964   10.0765   64.9017 F   0  0  0  0  0  0  0  0  0  0  0  0
   20.8327    8.0316   64.2056 F   0  0  0  0  0  0  0  0  0  0  0  0
   21.3342    8.9505   61.7028 C   0  0  0  0  0  0  0  0  0  0  0  0
   21.5248    9.3086   60.4113 N   0  0  0  0  0  0  0  0  0  0  0  0
  1  2  1  0
  2  3  1  0
  4  2  1  0
  4  5  1  0
  5  6  1  0
  6  7  1  0
  7  8  1  0
  8  9  1  0
  9 10  1  0
 10 11  4  0
 11 12  4  0
 12 13  4  0
 13 14  1  0
 14 15  1  0
 14 16  1  0
 14 17  1  0
 13 18  4  0
 18 19  4  0
  8  4  1  0
 19 10  4  0
M  END
