
     RDKit          3D

 22 25  0  0  0  0  0  0  0  0999 V2000
   21.4481   11.2254   58.3984 O   0  0  0  0  0  0  0  0  0  0  0  0
   22.4265   11.4295   59.1143 C   0  0  0  0  0  0  0  0  0  0  0  0
   22.2704   12.0185   60.4468 C   0  0  0  0  0  0  0  0  0  0  0  0
   21.0866   12.6134   61.0045 C   0  0  0  0  0  0  0  0  0  0  0  0
   21.2692   13.0573   62.2954 C   0  0  0  0  0  0  0  0  0  0  0  0
   22.8493   12.7404   62.8617 S   0  0  0  0  0  0  0  0  0  0  0  0
   23.2864   11.9951   61.3866 C   0  0  0  0  0  0  0  0  0  0  0  0
   23.7324   11.1393   58.6864 N   0  0  0  0  0  0  0  0  0  0  0  0
   24.6754   12.2313   58.4397 C   0  0  0  0  0  0  0  0  0  0  0  0
   25.4405   12.1238   57.1189 C   0  0  0  0  0  0  0  0  0  0  0  0
   25.5284   10.7323   56.5017 C   0  0  0  0  0  0  0  0  0  0  0  0
   26.1978    9.6719   57.3707 C   0  0  0  0  0  0  0  0  0  0  0  0
   25.7781    9.6264   58.8426 C   0  0  0  0  0  0  0  0  0  0  0  0
   24.2786    9.8392   59.1374 C   0  0  0  0  0  0  0  0  0  0  0  0
   23.4803    8.7065   58.5535 C   0  0  0  0  0  0  0  0  0  0  0  0
   22.1992    8.4219   58.6608 N   0  0  0  0  0  0  0  0  0  0  0  0
   22.0986    7.2857   57.9052 C   0  0  0  0  0  0  0  0  0  0  0  0
   20.7608    6.5182   57.7303 C   0  0  0  0  0  0  0  0  0  0  0  0
   20.7481    5.0209   57.9067 C   0  0  0  0  0  0  0  0  0  0  0  0
   20.0998    5.8998   58.9363 C   0  0  0  0  0  0  0  0  0  0  0  0
   23.2317    6.8920   57.3126 N   0  0  0  0  0  0  0  0  0  0  0  0
   24.1629    7.8342   57.7532 O   0  0  0  0  0  0  0  0  0  0  0  0
  1  2  2  0
  2  3  1  0
  3  4  4  0
  4  5  4  0
  5  6  4  0
  6  7  4  0
  2  8  1  0
  8  9  1  0
  9 10  1  0
 10 11  1  0
 11 12  1  0
 12 13  1  0
 13 14  1  0
 14 15  1  0
 15 16  4  0
 16 17  4  0
 17 18  1  0
 18 19  1  0
 19 20  1  0
 17 21  4  0
 21 22  4  0
  7  3  4  0
 14  8  1  0
 22 15  4  0
 20 18  1  0
M  END
