
     RDKit          3D

 20 22  0  0  0  0  0  0  0  0999 V2000
   19.4319   13.1946   55.6453 O   0  0  0  0  0  0  0  0  0  0  0  0
   20.4208   12.4766   56.2490 C   0  0  0  0  0  0  0  0  0  0  0  0
   21.7617   12.7829   56.0558 C   0  0  0  0  0  0  0  0  0  0  0  0
   22.7472   12.0206   56.6943 C   0  0  0  0  0  0  0  0  0  0  0  0
   22.4052   10.9438   57.5319 C   0  0  0  0  0  0  0  0  0  0  0  0
   23.4620   10.0620   58.2614 C   0  0  0  0  0  0  0  0  0  0  0  0
   23.0294    9.9095   59.7479 C   0  0  0  0  0  0  0  0  0  0  0  0
   22.6976   11.0634   60.4914 C   0  0  0  0  0  0  0  0  0  0  0  0
   22.2964   10.9816   61.8268 C   0  0  0  0  0  0  0  0  0  0  0  0
   22.2135    9.7436   62.4428 C   0  0  0  0  0  0  0  0  0  0  0  0
   21.8190    9.7041   63.7468 O   0  0  0  0  0  0  0  0  0  0  0  0
   22.5222    8.5856   61.7422 C   0  0  0  0  0  0  0  0  0  0  0  0
   22.9235    8.6697   60.4031 C   0  0  0  0  0  0  0  0  0  0  0  0
   23.5483    8.7282   57.4389 C   0  0  0  0  0  0  0  0  0  0  0  0
   24.8971    7.9935   57.4830 C   0  0  0  0  0  0  0  0  0  0  0  0
   25.7399    8.3007   58.7086 C   0  0  0  0  0  0  0  0  0  0  0  0
   25.9618    9.7969   58.9037 C   0  0  0  0  0  0  0  0  0  0  0  0
   24.8973   10.6753   58.2354 C   0  0  0  0  0  0  0  0  0  0  0  0
   21.0326   10.6632   57.7062 C   0  0  0  0  0  0  0  0  0  0  0  0
   20.0491   11.4232   57.0697 C   0  0  0  0  0  0  0  0  0  0  0  0
  1  2  1  0
  2  3  4  0
  3  4  4  0
  4  5  4  0
  5  6  1  0
  6  7  1  0
  7  8  4  0
  8  9  4  0
  9 10  4  0
 10 11  1  0
 10 12  4  0
 12 13  4  0
  6 14  1  0
 14 15  1  0
 15 16  1  0
 16 17  1  0
 17 18  1  0
  5 19  4  0
 19 20  4  0
 20  2  4  0
 18  6  1  0
 13  7  4  0
M  END
