
     RDKit          3D

 23 24  0  0  0  0  0  0  0  0999 V2000
   23.0078   14.2926   55.8383 O   0  0  0  0  0  0  0  0  0  0  0  0
   23.1149   13.1207   56.5245 C   0  0  0  0  0  0  0  0  0  0  0  0
   23.1990   11.8997   55.8693 C   0  0  0  0  0  0  0  0  0  0  0  0
   23.3079   10.7179   56.6118 C   0  0  0  0  0  0  0  0  0  0  0  0
   23.3342   10.7423   58.0191 C   0  0  0  0  0  0  0  0  0  0  0  0
   23.4572    9.4541   58.8889 C   0  0  0  0  0  0  0  0  0  0  0  0
   22.9027    9.7306   60.3197 C   0  0  0  0  0  0  0  0  0  0  0  0
   21.5115    9.8844   60.5087 C   0  0  0  0  0  0  0  0  0  0  0  0
   20.9743   10.1312   61.7737 C   0  0  0  0  0  0  0  0  0  0  0  0
   21.8152   10.2270   62.8711 C   0  0  0  0  0  0  0  0  0  0  0  0
   21.2505   10.4679   64.0872 O   0  0  0  0  0  0  0  0  0  0  0  0
   23.1876   10.0804   62.7230 C   0  0  0  0  0  0  0  0  0  0  0  0
   23.7282    9.8338   61.4554 C   0  0  0  0  0  0  0  0  0  0  0  0
   24.9223    8.9955   58.8453 C   0  0  0  0  0  0  0  0  0  0  0  0
   25.7827   10.0126   59.1137 F   0  0  0  0  0  0  0  0  0  0  0  0
   25.2802    8.5105   57.6327 F   0  0  0  0  0  0  0  0  0  0  0  0
   25.2008    8.0255   59.7477 F   0  0  0  0  0  0  0  0  0  0  0  0
   22.7215    8.2280   58.3284 C   0  0  0  0  0  0  0  0  0  0  0  0
   22.5696    7.2536   59.2633 F   0  0  0  0  0  0  0  0  0  0  0  0
   21.4749    8.5151   57.8852 F   0  0  0  0  0  0  0  0  0  0  0  0
   23.3786    7.6554   57.2920 F   0  0  0  0  0  0  0  0  0  0  0  0
   23.2473   12.0024   58.6511 C   0  0  0  0  0  0  0  0  0  0  0  0
   23.1378   13.1800   57.9088 C   0  0  0  0  0  0  0  0  0  0  0  0
  1  2  1  0
  2  3  4  0
  3  4  4  0
  4  5  4  0
  5  6  1  0
  6  7  1  0
  7  8  4  0
  8  9  4  0
  9 10  4  0
 10 11  1  0
 10 12  4  0
 12 13  4  0
  6 14  1  0
 14 15  1  0
 14 16  1  0
 14 17  1  0
  6 18  1  0
 18 19  1  0
 18 20  1  0
 18 21  1  0
  5 22  4  0
 22 23  4  0
 23  2  4  0
 13  7  4  0
M  END
