
     RDKit          3D

 17 18  0  0  0  0  0  0  0  0999 V2000
   20.9216    8.5621   60.3272 O   0  0  0  0  0  0  0  0  0  0  0  0
   22.2487    8.6484   59.7460 S   0  0  0  0  0  6  0  0  0  0  0  0
   22.9596    7.4466   59.3473 O   0  0  0  0  0  0  0  0  0  0  0  0
   23.2642    9.5183   60.9187 C   0  0  0  0  0  0  0  0  0  0  0  0
   24.0442    8.8050   61.8351 C   0  0  0  0  0  0  0  0  0  0  0  0
   24.8392    9.4999   62.7485 C   0  0  0  0  0  0  0  0  0  0  0  0
   24.8397   10.8930   62.7357 C   0  0  0  0  0  0  0  0  0  0  0  0
   25.6014   11.6095   63.6101 O   0  0  0  0  0  0  0  0  0  0  0  0
   24.0572   11.6040   61.8301 C   0  0  0  0  0  0  0  0  0  0  0  0
   23.2589   10.9169   60.9161 C   0  0  0  0  0  0  0  0  0  0  0  0
   22.1529    9.6832   58.3022 C   0  0  0  0  0  0  0  0  0  0  0  0
   22.9215    9.3821   57.1743 C   0  0  0  0  0  0  0  0  0  0  0  0
   22.8354   10.2046   56.0511 C   0  0  0  0  0  0  0  0  0  0  0  0
   21.9968   11.3159   56.0698 C   0  0  0  0  0  0  0  0  0  0  0  0
   21.9488   12.0889   54.9481 O   0  0  0  0  0  0  0  0  0  0  0  0
   21.2393   11.6268   57.1969 C   0  0  0  0  0  0  0  0  0  0  0  0
   21.3189   10.8072   58.3241 C   0  0  0  0  0  0  0  0  0  0  0  0
  1  2  2  0
  2  3  2  0
  2  4  1  0
  4  5  4  0
  5  6  4  0
  6  7  4  0
  7  8  1  0
  7  9  4  0
  9 10  4  0
  2 11  1  0
 11 12  4  0
 12 13  4  0
 13 14  4  0
 14 15  1  0
 14 16  4  0
 16 17  4  0
 10  4  4  0
 17 11  4  0
M  END
