
     RDKit          3D

 20 22  0  0  0  0  0  0  0  0999 V2000
    0.7909   16.1243   33.4336 O   0  0  0  0  0  0  0  0  0  0  0  0
    1.4810   16.5932   32.3557 C   0  0  0  0  0  0  0  0  0  0  0  0
    2.4064   15.8027   31.6865 C   0  0  0  0  0  0  0  0  0  0  0  0
    3.0947   16.3219   30.5835 C   0  0  0  0  0  0  0  0  0  0  0  0
    2.8674   17.6361   30.1369 C   0  0  0  0  0  0  0  0  0  0  0  0
    3.6093   18.2630   28.9190 C   0  0  0  0  0  0  0  0  0  0  0  0
    4.8881   18.9786   29.4409 C   0  0  0  0  0  0  0  0  0  0  0  0
    4.8640   20.3767   29.6384 C   0  0  0  0  0  0  0  0  0  0  0  0
    5.9822   21.0670   30.1118 C   0  0  0  0  0  0  0  0  0  0  0  0
    7.1445   20.3714   30.4024 C   0  0  0  0  0  0  0  0  0  0  0  0
    8.2147   21.0795   30.8615 O   0  0  0  0  0  0  0  0  0  0  0  0
    7.2041   18.9952   30.2304 C   0  0  0  0  0  0  0  0  0  0  0  0
    6.0815   18.3050   29.7564 C   0  0  0  0  0  0  0  0  0  0  0  0
    3.8536   17.0837   27.9128 C   0  0  0  0  0  0  0  0  0  0  0  0
    3.9276   17.4680   26.4269 C   0  0  0  0  0  0  0  0  0  0  0  0
    4.3281   18.9104   26.1704 C   0  0  0  0  0  0  0  0  0  0  0  0
    3.4419   19.9030   26.9155 C   0  0  0  0  0  0  0  0  0  0  0  0
    2.7476   19.3123   28.1485 C   0  0  0  0  0  0  0  0  0  0  0  0
    1.9184   18.4093   30.8403 C   0  0  0  0  0  0  0  0  0  0  0  0
    1.2315   17.8918   31.9405 C   0  0  0  0  0  0  0  0  0  0  0  0
  1  2  1  0
  2  3  4  0
  3  4  4  0
  4  5  4  0
  5  6  1  0
  6  7  1  0
  7  8  4  0
  8  9  4  0
  9 10  4  0
 10 11  1  0
 10 12  4  0
 12 13  4  0
  6 14  1  0
 14 15  1  0
 15 16  1  0
 16 17  1  0
 17 18  1  0
  5 19  4  0
 19 20  4  0
 20  2  4  0
 18  6  1  0
 13  7  4  0
M  END
