
     RDKit          3D

 22 25  0  0  0  0  0  0  0  0999 V2000
    5.5591   18.9688   32.1479 O   0  0  0  0  0  0  0  0  0  0  0  0
    4.7826   18.6856   31.2384 C   0  0  0  0  0  0  0  0  0  0  0  0
    3.4739   18.1169   31.5541 C   0  0  0  0  0  0  0  0  0  0  0  0
    3.1670   16.7350   31.8033 C   0  0  0  0  0  0  0  0  0  0  0  0
    1.8278   16.5249   32.0475 C   0  0  0  0  0  0  0  0  0  0  0  0
    0.9249   17.9723   31.9468 S   0  0  0  0  0  0  0  0  0  0  0  0
    2.3205   18.8805   31.5581 C   0  0  0  0  0  0  0  0  0  0  0  0
    5.1025   18.9037   29.8931 N   0  0  0  0  0  0  0  0  0  0  0  0
    5.1835   17.7208   29.0373 C   0  0  0  0  0  0  0  0  0  0  0  0
    3.8369   17.1117   28.6544 C   0  0  0  0  0  0  0  0  0  0  0  0
    2.7239   18.0896   28.2881 C   0  0  0  0  0  0  0  0  0  0  0  0
    3.1778   19.3543   27.5649 C   0  0  0  0  0  0  0  0  0  0  0  0
    3.6510   20.4493   28.5268 C   0  0  0  0  0  0  0  0  0  0  0  0
    5.0000   20.2229   29.2318 C   0  0  0  0  0  0  0  0  0  0  0  0
    6.1754   20.4760   28.3375 C   0  0  0  0  0  0  0  0  0  0  0  0
    6.2772   21.1902   27.2378 N   0  0  0  0  0  0  0  0  0  0  0  0
    7.5954   21.0175   26.9035 C   0  0  0  0  0  0  0  0  0  0  0  0
    8.2414   21.6681   25.6471 C   0  0  0  0  0  0  0  0  0  0  0  0
    9.4982   22.4862   25.8019 C   0  0  0  0  0  0  0  0  0  0  0  0
    8.1976   23.1659   25.4807 C   0  0  0  0  0  0  0  0  0  0  0  0
    8.2942   20.2452   27.7433 N   0  0  0  0  0  0  0  0  0  0  0  0
    7.3496   19.8787   28.7015 O   0  0  0  0  0  0  0  0  0  0  0  0
  1  2  2  0
  2  3  1  0
  3  4  4  0
  4  5  4  0
  5  6  4  0
  6  7  4  0
  2  8  1  0
  8  9  1  0
  9 10  1  0
 10 11  1  0
 11 12  1  0
 12 13  1  0
 13 14  1  0
 14 15  1  0
 15 16  4  0
 16 17  4  0
 17 18  1  0
 18 19  1  0
 19 20  1  0
 17 21  4  0
 21 22  4  0
  7  3  4  0
 14  8  1  0
 22 15  4  0
 20 18  1  0
M  END
