
     RDKit          3D

 17 18  0  0  0  0  0  0  0  0999 V2000
    3.0522   21.0419   27.4938 O   0  0  0  0  0  0  0  0  0  0  0  0
    3.3738   19.8285   28.2239 S   0  0  0  0  0  6  0  0  0  0  0  0
    2.4234   19.2567   29.1598 O   0  0  0  0  0  0  0  0  0  0  0  0
    4.8871   20.1512   29.1016 C   0  0  0  0  0  0  0  0  0  0  0  0
    5.8716   20.9581   28.5242 C   0  0  0  0  0  0  0  0  0  0  0  0
    7.0527   21.1999   29.2255 C   0  0  0  0  0  0  0  0  0  0  0  0
    7.2409   20.6296   30.4816 C   0  0  0  0  0  0  0  0  0  0  0  0
    8.4124   20.8951   31.1260 O   0  0  0  0  0  0  0  0  0  0  0  0
    6.2676   19.8140   31.0547 C   0  0  0  0  0  0  0  0  0  0  0  0
    5.0822   19.5688   30.3595 C   0  0  0  0  0  0  0  0  0  0  0  0
    3.7459   18.5596   27.0345 C   0  0  0  0  0  0  0  0  0  0  0  0
    3.5428   18.7962   25.6708 C   0  0  0  0  0  0  0  0  0  0  0  0
    3.8416   17.7927   24.7472 C   0  0  0  0  0  0  0  0  0  0  0  0
    4.3332   16.5699   25.1988 C   0  0  0  0  0  0  0  0  0  0  0  0
    4.6375   15.5640   24.3306 O   0  0  0  0  0  0  0  0  0  0  0  0
    4.5275   16.3302   26.5564 C   0  0  0  0  0  0  0  0  0  0  0  0
    4.2293   17.3269   27.4850 C   0  0  0  0  0  0  0  0  0  0  0  0
  1  2  2  0
  2  3  2  0
  2  4  1  0
  4  5  4  0
  5  6  4  0
  6  7  4  0
  7  8  1  0
  7  9  4  0
  9 10  4  0
  2 11  1  0
 11 12  4  0
 12 13  4  0
 13 14  4  0
 14 15  1  0
 14 16  4  0
 16 17  4  0
 10  4  4  0
 17 11  4  0
M  END
