
     RDKit          3D

 33 35  0  0  0  0  0  0  0  0999 V2000
    2.3023   14.5128   24.6680 C   0  0  0  0  0  0  0  0  0  0  0  0
    3.3810   15.3532   24.2742 O   0  0  0  0  0  0  0  0  0  0  0  0
    3.7780   16.3102   25.1646 C   0  0  0  0  0  0  0  0  0  0  0  0
    4.1817   16.0897   26.4831 C   0  0  0  0  0  0  0  0  0  0  0  0
    4.5533   17.1714   27.2917 C   0  0  0  0  0  0  0  0  0  0  0  0
    4.5051   18.4790   26.8017 C   0  0  0  0  0  0  0  0  0  0  0  0
    4.9046   19.5497   27.5983 N   0  0  0  0  0  0  0  0  0  0  0  0
    4.2558   19.9560   28.6314 C   0  0  0  0  0  0  0  0  0  0  0  0
    3.0813   19.5349   29.2053 N   0  0  0  0  0  0  0  0  0  0  0  0
    2.8643   18.2378   29.8231 C   0  0  0  0  0  0  0  0  0  0  0  0
    2.9408   18.2804   31.3202 C   0  0  0  0  0  0  0  0  0  0  0  0
    4.1157   18.3083   32.1203 C   0  0  0  0  0  0  0  0  0  0  0  0
    5.5298   18.2978   31.6692 C   0  0  0  0  0  0  0  0  0  0  0  0
    3.8266   18.3633   33.4247 N   0  0  0  0  0  0  0  0  0  0  0  0
    2.4841   18.3556   33.4702 N   0  0  0  0  0  0  0  0  0  0  0  0
    1.8248   18.3912   34.7557 C   0  0  0  0  0  0  0  0  0  0  0  0
    1.8950   18.3404   32.2310 C   0  0  0  0  0  0  0  0  0  0  0  0
    0.4227   18.3747   32.0314 C   0  0  0  0  0  0  0  0  0  0  0  0
    4.8214   20.9894   29.3580 N   0  0  0  0  0  0  0  0  0  0  0  0
    6.1670   21.2072   29.6412 C   0  0  0  0  0  0  0  0  0  0  0  0
    6.7098   21.1088   30.7357 O   0  0  0  0  0  0  0  0  0  0  0  0
    7.0190   21.4043   28.4352 C   0  0  0  0  0  0  0  0  0  0  0  0
    7.0274   22.6140   27.7339 C   0  0  0  0  0  0  0  0  0  0  0  0
    7.8254   22.7607   26.5915 C   0  0  0  0  0  0  0  0  0  0  0  0
    8.6381   21.7118   26.1276 C   0  0  0  0  0  0  0  0  0  0  0  0
    9.5329   21.8462   24.8800 C   0  0  0  0  0  0  0  0  0  0  0  0
   10.9693   22.2255   25.3078 C   0  0  0  0  0  0  0  0  0  0  0  0
    8.9685   22.9451   23.9566 C   0  0  0  0  0  0  0  0  0  0  0  0
    9.6355   20.5497   24.0418 C   0  0  0  0  0  0  0  0  0  0  0  0
    8.6254   20.5081   26.8624 C   0  0  0  0  0  0  0  0  0  0  0  0
    7.8327   20.3566   28.0049 C   0  0  0  0  0  0  0  0  0  0  0  0
    4.1314   18.6922   25.4753 C   0  0  0  0  0  0  0  0  0  0  0  0
    3.7566   17.6159   24.6661 C   0  0  0  0  0  0  0  0  0  0  0  0
  1  2  1  0
  2  3  1  0
  3  4  4  0
  4  5  4  0
  5  6  4  0
  6  7  1  0
  7  8  2  0
  8  9  1  0
  9 10  1  0
 10 11  1  0
 11 12  4  0
 12 13  1  0
 12 14  4  0
 14 15  4  0
 15 16  1  0
 15 17  4  0
 17 18  1  0
  8 19  1  0
 19 20  1  0
 20 21  2  0
 20 22  1  0
 22 23  4  0
 23 24  4  0
 24 25  4  0
 25 26  1  0
 26 27  1  0
 26 28  1  0
 26 29  1  0
 25 30  4  0
 30 31  4  0
  6 32  4  0
 32 33  4  0
 33  3  4  0
 17 11  4  0
 31 22  4  0
M  END
