
     RDKit          3D

 19 20  0  0  0  0  0  0  0  0999 V2000
    7.5311   20.2015   26.0640 C   0  0  0  0  0  0  0  0  0  0  0  0
    6.6359   20.4402   27.1992 N   0  0  0  0  0  0  0  0  0  0  0  0
    7.4251   20.7174   28.3968 C   0  0  0  0  0  0  0  0  0  0  0  0
    5.6500   19.3349   27.3321 C   0  0  0  0  0  0  0  0  0  0  0  0
    4.7982   19.2203   26.0414 C   0  0  0  0  0  0  0  0  0  0  0  0
    3.3353   19.2901   26.4637 C   0  0  0  0  0  0  0  0  0  0  0  0
    3.3503   19.9590   27.8286 C   0  0  0  0  0  0  0  0  0  0  0  0
    4.6107   19.3976   28.5005 C   0  0  0  0  0  0  0  0  0  0  0  0
    4.2922   18.0515   29.0188 N   0  0  0  0  0  0  0  0  0  0  0  0
    3.4261   17.9926   30.1209 C   0  0  0  0  0  0  0  0  0  0  0  0
    3.9644   17.6249   31.3524 C   0  0  0  0  0  0  0  0  0  0  0  0
    3.1453   17.5764   32.4801 C   0  0  0  0  0  0  0  0  0  0  0  0
    1.7972   17.9096   32.3633 C   0  0  0  0  0  0  0  0  0  0  0  0
    0.8497   17.8640   33.5193 C   0  0  0  0  0  0  0  0  0  0  0  0
    1.3722   18.4350   34.6392 F   0  0  0  0  0  0  0  0  0  0  0  0
    0.5030   16.5960   33.8747 F   0  0  0  0  0  0  0  0  0  0  0  0
   -0.3221   18.5161   33.2806 F   0  0  0  0  0  0  0  0  0  0  0  0
    1.3435   18.2636   31.1040 C   0  0  0  0  0  0  0  0  0  0  0  0
    2.1253   18.3135   29.9989 N   0  0  0  0  0  0  0  0  0  0  0  0
  1  2  1  0
  2  3  1  0
  4  2  1  0
  4  5  1  0
  5  6  1  0
  6  7  1  0
  7  8  1  0
  8  9  1  0
  9 10  1  0
 10 11  4  0
 11 12  4  0
 12 13  4  0
 13 14  1  0
 14 15  1  0
 14 16  1  0
 14 17  1  0
 13 18  4  0
 18 19  4  0
  8  4  1  0
 19 10  4  0
M  END
