
     RDKit          3D

 23 24  0  0  0  0  0  0  0  0999 V2000
   -0.3062   18.6634   32.4575 O   0  0  0  0  0  0  0  0  0  0  0  0
    0.7700   18.8087   31.6349 C   0  0  0  0  0  0  0  0  0  0  0  0
    1.6796   17.7654   31.5673 C   0  0  0  0  0  0  0  0  0  0  0  0
    2.7961   17.8726   30.7357 C   0  0  0  0  0  0  0  0  0  0  0  0
    3.0233   19.0297   29.9582 C   0  0  0  0  0  0  0  0  0  0  0  0
    4.2845   19.1043   29.0440 C   0  0  0  0  0  0  0  0  0  0  0  0
    5.5046   18.4742   29.7824 C   0  0  0  0  0  0  0  0  0  0  0  0
    5.3757   17.2001   30.3806 C   0  0  0  0  0  0  0  0  0  0  0  0
    6.4434   16.5976   31.0517 C   0  0  0  0  0  0  0  0  0  0  0  0
    7.6579   17.2622   31.1354 C   0  0  0  0  0  0  0  0  0  0  0  0
    8.7276   16.7157   31.7780 O   0  0  0  0  0  0  0  0  0  0  0  0
    7.8175   18.5142   30.5603 C   0  0  0  0  0  0  0  0  0  0  0  0
    6.7505   19.1186   29.8881 C   0  0  0  0  0  0  0  0  0  0  0  0
    4.6798   20.5235   28.6103 C   0  0  0  0  0  0  0  0  0  0  0  0
    3.7147   21.1480   27.8953 F   0  0  0  0  0  0  0  0  0  0  0  0
    5.8002   20.5445   27.8506 F   0  0  0  0  0  0  0  0  0  0  0  0
    4.9328   21.3282   29.6765 F   0  0  0  0  0  0  0  0  0  0  0  0
    3.9330   18.4456   27.7018 C   0  0  0  0  0  0  0  0  0  0  0  0
    2.8916   19.0521   27.0834 F   0  0  0  0  0  0  0  0  0  0  0  0
    4.9620   18.4524   26.8226 F   0  0  0  0  0  0  0  0  0  0  0  0
    3.5758   17.1433   27.8510 F   0  0  0  0  0  0  0  0  0  0  0  0
    2.0799   20.0704   30.0504 C   0  0  0  0  0  0  0  0  0  0  0  0
    0.9601   19.9604   30.8834 C   0  0  0  0  0  0  0  0  0  0  0  0
  1  2  1  0
  2  3  4  0
  3  4  4  0
  4  5  4  0
  5  6  1  0
  6  7  1  0
  7  8  4  0
  8  9  4  0
  9 10  4  0
 10 11  1  0
 10 12  4  0
 12 13  4  0
  6 14  1  0
 14 15  1  0
 14 16  1  0
 14 17  1  0
  6 18  1  0
 18 19  1  0
 18 20  1  0
 18 21  1  0
  5 22  4  0
 22 23  4  0
 23  2  4  0
 13  7  4  0
M  END
